xflr5 v6.61

 Calculated polar for: NACA 0012

 1 1 Reynolds number fixed          Mach number fixed         

 xtrf =   1.000 (top)        1.000 (bottom)
 Mach =   0.000     Re =     1.400 e 6     Ncrit =   9.000

  alpha     CL        CD       CDp       Cm    Top Xtr Bot Xtr   Cpmin    Chinge    XCp    
 ------- -------- --------- --------- -------- ------- ------- -------- --------- ---------
 -15.000  -1.4378   0.02664   0.02205  -0.0285  1.0000  0.0126  -10.1177   0.0000   0.0000   0.0000   0.2114
 -14.900  -1.4343   0.02618   0.02156  -0.0279  1.0000  0.0127  -10.0387   0.0000   0.0000   0.0000   0.2119
 -14.800  -1.4306   0.02574   0.02109  -0.0274  1.0000  0.0127  -9.9582   0.0000   0.0000   0.0000   0.2124
 -14.700  -1.4264   0.02534   0.02066  -0.0268  1.0000  0.0128  -9.8753   0.0000   0.0000   0.0000   0.2129
 -14.600  -1.4222   0.02495   0.02025  -0.0262  1.0000  0.0129  -9.7914   0.0000   0.0000   0.0000   0.2135
 -14.500  -1.4177   0.02458   0.01986  -0.0256  1.0000  0.0129  -9.7062   0.0000   0.0000   0.0000   0.2140
 -14.400  -1.4130   0.02424   0.01949  -0.0250  1.0000  0.0129  -9.6193   0.0000   0.0000   0.0000   0.2146
 -14.300  -1.4082   0.02392   0.01914  -0.0244  1.0000  0.0130  -9.5321   0.0000   0.0000   0.0000   0.2151
 -14.200  -1.4033   0.02361   0.01881  -0.0238  1.0000  0.0130  -9.4442   0.0000   0.0000   0.0000   0.2157
 -14.100  -1.3980   0.02332   0.01849  -0.0231  1.0000  0.0131  -9.3543   0.0000   0.0000   0.0000   0.2163
 -14.000  -1.3927   0.02303   0.01819  -0.0225  1.0000  0.0131  -9.2640   0.0000   0.0000   0.0000   0.2168
 -13.900  -1.3873   0.02277   0.01790  -0.0218  1.0000  0.0131  -9.1735   0.0000   0.0000   0.0000   0.2174
 -13.800  -1.3835   0.02241   0.01752  -0.0210  1.0000  0.0132  -9.0958   0.0000   0.0000   0.0000   0.2182
 -13.700  -1.3850   0.02176   0.01679  -0.0193  1.0000  0.0134  -9.0621   0.0000   0.0000   0.0000   0.2195
 -13.600  -1.3843   0.02122   0.01621  -0.0180  1.0000  0.0136  -9.0113   0.0000   0.0000   0.0000   0.2207
 -13.500  -1.3811   0.02076   0.01570  -0.0170  1.0000  0.0139  -8.9440   0.0000   0.0000   0.0000   0.2215
 -13.400  -1.3763   0.02036   0.01527  -0.0162  1.0000  0.0141  -8.8655   0.0000   0.0000   0.0000   0.2222
 -13.300  -1.3706   0.02001   0.01488  -0.0155  1.0000  0.0144  -8.7799   0.0000   0.0000   0.0000   0.2228
 -13.200  -1.3642   0.01970   0.01455  -0.0150  1.0000  0.0146  -8.6890   0.0000   0.0000   0.0000   0.2234
 -13.100  -1.3573   0.01942   0.01426  -0.0144  1.0000  0.0148  -8.5945   0.0000   0.0000   0.0000   0.2239
 -13.000  -1.3501   0.01916   0.01399  -0.0140  1.0000  0.0150  -8.4976   0.0000   0.0000   0.0000   0.2243
 -12.900  -1.3427   0.01892   0.01373  -0.0135  1.0000  0.0152  -8.3991   0.0000   0.0000   0.0000   0.2248
 -12.800  -1.3350   0.01869   0.01349  -0.0131  1.0000  0.0154  -8.2997   0.0000   0.0000   0.0000   0.2252
 -12.700  -1.3272   0.01847   0.01326  -0.0127  1.0000  0.0155  -8.1996   0.0000   0.0000   0.0000   0.2256
 -12.600  -1.3192   0.01825   0.01303  -0.0123  1.0000  0.0157  -8.0993   0.0000   0.0000   0.0000   0.2260
 -12.500  -1.3112   0.01804   0.01281  -0.0119  1.0000  0.0159  -7.9987   0.0000   0.0000   0.0000   0.2264
 -12.400  -1.3030   0.01784   0.01259  -0.0115  1.0000  0.0161  -7.8978   0.0000   0.0000   0.0000   0.2268
 -12.300  -1.2947   0.01764   0.01238  -0.0112  1.0000  0.0162  -7.7970   0.0000   0.0000   0.0000   0.2271
 -12.200  -1.2863   0.01745   0.01217  -0.0108  1.0000  0.0164  -7.6963   0.0000   0.0000   0.0000   0.2275
 -12.100  -1.2778   0.01726   0.01197  -0.0105  1.0000  0.0166  -7.5958   0.0000   0.0000   0.0000   0.2279
 -12.000  -1.2693   0.01707   0.01177  -0.0101  1.0000  0.0168  -7.4954   0.0000   0.0000   0.0000   0.2282
 -11.900  -1.2606   0.01689   0.01157  -0.0098  1.0000  0.0169  -7.3950   0.0000   0.0000   0.0000   0.2286
 -11.800  -1.2519   0.01671   0.01138  -0.0095  1.0000  0.0171  -7.2946   0.0000   0.0000   0.0000   0.2290
 -11.700  -1.2431   0.01654   0.01119  -0.0092  1.0000  0.0172  -7.1943   0.0000   0.0000   0.0000   0.2293
 -11.600  -1.2342   0.01638   0.01101  -0.0089  1.0000  0.0174  -7.0938   0.0000   0.0000   0.0000   0.2296
 -11.500  -1.2252   0.01622   0.01083  -0.0086  1.0000  0.0175  -6.9933   0.0000   0.0000   0.0000   0.2300
 -11.400  -1.2162   0.01607   0.01067  -0.0083  1.0000  0.0176  -6.8927   0.0000   0.0000   0.0000   0.2303
 -11.300  -1.2070   0.01593   0.01052  -0.0080  1.0000  0.0177  -6.7916   0.0000   0.0000   0.0000   0.2306
 -11.200  -1.1976   0.01580   0.01039  -0.0078  1.0000  0.0178  -6.6899   0.0000   0.0000   0.0000   0.2309
 -11.100  -1.1882   0.01569   0.01026  -0.0075  1.0000  0.0179  -6.5880   0.0000   0.0000   0.0000   0.2312
 -11.000  -1.1808   0.01537   0.00991  -0.0070  1.0000  0.0183  -6.5049   0.0000   0.0000   0.0000   0.2318
 -10.900  -1.1735   0.01505   0.00955  -0.0064  1.0000  0.0190  -6.4238   0.0000   0.0000   0.0000   0.2323
 -10.800  -1.1653   0.01480   0.00930  -0.0060  1.0000  0.0196  -6.3352   0.0000   0.0000   0.0000   0.2328
 -10.700  -1.1567   0.01460   0.00909  -0.0056  1.0000  0.0200  -6.2428   0.0000   0.0000   0.0000   0.2333
 -10.600  -1.1479   0.01443   0.00892  -0.0052  1.0000  0.0204  -6.1488   0.0000   0.0000   0.0000   0.2337
 -10.500  -1.1390   0.01426   0.00875  -0.0049  1.0000  0.0208  -6.0546   0.0000   0.0000   0.0000   0.2341
 -10.400  -1.1300   0.01411   0.00859  -0.0046  1.0000  0.0212  -5.9606   0.0000   0.0000   0.0000   0.2345
 -10.300  -1.1210   0.01396   0.00844  -0.0042  1.0000  0.0215  -5.8670   0.0000   0.0000   0.0000   0.2349
 -10.200  -1.1120   0.01381   0.00830  -0.0039  1.0000  0.0218  -5.7738   0.0000   0.0000   0.0000   0.2353
 -10.100  -1.1030   0.01368   0.00815  -0.0035  1.0000  0.0221  -5.6810   0.0000   0.0000   0.0000   0.2357
 -10.000  -1.0940   0.01355   0.00802  -0.0032  1.0000  0.0224  -5.5888   0.0000   0.0000   0.0000   0.2361
  -9.900  -1.0850   0.01343   0.00788  -0.0028  1.0000  0.0227  -5.4973   0.0000   0.0000   0.0000   0.2366
  -9.800  -1.0760   0.01331   0.00775  -0.0024  1.0000  0.0230  -5.4064   0.0000   0.0000   0.0000   0.2370
  -9.700  -1.0670   0.01320   0.00763  -0.0020  1.0000  0.0232  -5.3209   0.0000   0.0000   0.0000   0.2375
  -9.600  -1.0581   0.01309   0.00751  -0.0016  1.0000  0.0234  -5.2391   0.0000   0.0000   0.0000   0.2380
  -9.500  -1.0491   0.01299   0.00740  -0.0012  1.0000  0.0236  -5.1575   0.0000   0.0000   0.0000   0.2385
  -9.400  -1.0400   0.01289   0.00730  -0.0009  1.0000  0.0237  -5.0761   0.0000   0.0000   0.0000   0.2390
  -9.300  -1.0316   0.01274   0.00713  -0.0004  1.0000  0.0241  -5.0004   0.0000   0.0000   0.0000   0.2395
  -9.200  -1.0240   0.01252   0.00689   0.0003  1.0000  0.0251  -4.9326   0.0000   0.0000   0.0000   0.2403
  -9.100  -1.0159   0.01234   0.00671   0.0008  1.0000  0.0260  -4.8602   0.0000   0.0000   0.0000   0.2410
  -9.000  -1.0076   0.01219   0.00656   0.0014  1.0000  0.0268  -4.7854   0.0000   0.0000   0.0000   0.2416
  -8.900  -0.9992   0.01206   0.00644   0.0019  1.0000  0.0274  -4.7098   0.0000   0.0000   0.0000   0.2422
  -8.800  -0.9907   0.01193   0.00632   0.0024  1.0000  0.0281  -4.6342   0.0000   0.0000   0.0000   0.2429
  -8.700  -0.9822   0.01182   0.00621   0.0029  1.0000  0.0286  -4.5587   0.0000   0.0000   0.0000   0.2435
  -8.600  -0.9737   0.01171   0.00610   0.0034  1.0000  0.0292  -4.4834   0.0000   0.0000   0.0000   0.2442
  -8.500  -0.9651   0.01161   0.00599   0.0038  1.0000  0.0297  -4.4083   0.0000   0.0000   0.0000   0.2448
  -8.400  -0.9565   0.01152   0.00589   0.0043  1.0000  0.0302  -4.3334   0.0000   0.0000   0.0000   0.2455
  -8.300  -0.9478   0.01143   0.00580   0.0048  1.0000  0.0305  -4.2587   0.0000   0.0000   0.0000   0.2461
  -8.200  -0.9391   0.01136   0.00572   0.0053  1.0000  0.0308  -4.1840   0.0000   0.0000   0.0000   0.2468
  -8.100  -0.9304   0.01129   0.00564   0.0058  1.0000  0.0310  -4.1093   0.0000   0.0000   0.0000   0.2475
  -8.000  -0.9224   0.01114   0.00548   0.0064  1.0000  0.0323  -4.0420   0.0000   0.0000   0.0000   0.2483
  -7.900  -0.9144   0.01099   0.00534   0.0070  1.0000  0.0340  -3.9743   0.0000   0.0000   0.0000   0.2491
  -7.800  -0.9063   0.01086   0.00523   0.0075  1.0000  0.0354  -3.9048   0.0000   0.0000   0.0000   0.2499
  -7.700  -0.8980   0.01074   0.00513   0.0081  1.0000  0.0365  -3.8347   0.0000   0.0000   0.0000   0.2507
  -7.600  -0.8849   0.01062   0.00502   0.0076  0.9996  0.0377  -3.7483   0.0000   0.0000   0.0000   0.2504
  -7.500  -0.8718   0.01051   0.00492   0.0071  0.9992  0.0387  -3.6620   0.0000   0.0000   0.0000   0.2501
  -7.400  -0.8585   0.01042   0.00482   0.0066  0.9987  0.0395  -3.5759   0.0000   0.0000   0.0000   0.2497
  -7.300  -0.8452   0.01034   0.00474   0.0061  0.9982  0.0400  -3.4899   0.0000   0.0000   0.0000   0.2493
  -7.200  -0.8320   0.01024   0.00462   0.0056  0.9976  0.0412  -3.4063   0.0000   0.0000   0.0000   0.2490
  -7.100  -0.8190   0.01008   0.00448   0.0052  0.9970  0.0442  -3.3254   0.0000   0.0000   0.0000   0.2486
  -7.000  -0.8059   0.00994   0.00437   0.0047  0.9963  0.0466  -3.2435   0.0000   0.0000   0.0000   0.2482
  -6.900  -0.7926   0.00982   0.00427   0.0042  0.9957  0.0485  -3.1615   0.0000   0.0000   0.0000   0.2477
  -6.800  -0.7792   0.00972   0.00418   0.0036  0.9950  0.0501  -3.0855   0.0000   0.0000   0.0000   0.2472
  -6.700  -0.7657   0.00963   0.00410   0.0031  0.9944  0.0513  -3.0115   0.0000   0.0000   0.0000   0.2467
  -6.600  -0.7520   0.00955   0.00401   0.0025  0.9937  0.0529  -2.9383   0.0000   0.0000   0.0000   0.2461
  -6.500  -0.7387   0.00940   0.00389   0.0020  0.9931  0.0576  -2.8675   0.0000   0.0000   0.0000   0.2455
  -6.400  -0.7252   0.00927   0.00379   0.0014  0.9925  0.0611  -2.7962   0.0000   0.0000   0.0000   0.2448
  -6.300  -0.7115   0.00916   0.00371   0.0008  0.9919  0.0639  -2.7245   0.0000   0.0000   0.0000   0.2441
  -6.200  -0.6976   0.00907   0.00363   0.0002  0.9914  0.0657  -2.6528   0.0000   0.0000   0.0000   0.2433
  -6.100  -0.6837   0.00898   0.00353  -0.0005  0.9909  0.0692  -2.5822   0.0000   0.0000   0.0000   0.2425
  -6.000  -0.6700   0.00884   0.00343  -0.0011  0.9904  0.0747  -2.5129   0.0000   0.0000   0.0000   0.2416
  -5.900  -0.6561   0.00872   0.00335  -0.0017  0.9900  0.0789  -2.4433   0.0000   0.0000   0.0000   0.2406
  -5.800  -0.6421   0.00862   0.00327  -0.0024  0.9895  0.0822  -2.3740   0.0000   0.0000   0.0000   0.2396
  -5.700  -0.6304   0.00854   0.00320  -0.0025  0.9882  0.0848  -2.3117   0.0000   0.0000   0.0000   0.2395
  -5.600  -0.6185   0.00841   0.00310  -0.0027  0.9868  0.0919  -2.2496   0.0000   0.0000   0.0000   0.2391
  -5.500  -0.6063   0.00828   0.00302  -0.0030  0.9853  0.0979  -2.1870   0.0000   0.0000   0.0000   0.2387
  -5.400  -0.5938   0.00819   0.00295  -0.0033  0.9837  0.1024  -2.1256   0.0000   0.0000   0.0000   0.2381
  -5.300  -0.5812   0.00809   0.00287  -0.0036  0.9821  0.1085  -2.0696   0.0000   0.0000   0.0000   0.2375
  -5.200  -0.5690   0.00795   0.00278  -0.0039  0.9803  0.1168  -2.0150   0.0000   0.0000   0.0000   0.2370
  -5.100  -0.5566   0.00785   0.00271  -0.0041  0.9785  0.1227  -1.9601   0.0000   0.0000   0.0000   0.2364
  -5.000  -0.5438   0.00777   0.00264  -0.0045  0.9767  0.1272  -1.9049   0.0000   0.0000   0.0000   0.2356
  -4.900  -0.5312   0.00764   0.00256  -0.0049  0.9749  0.1372  -1.8507   0.0000   0.0000   0.0000   0.2348
  -4.800  -0.5184   0.00753   0.00249  -0.0052  0.9730  0.1446  -1.7964   0.0000   0.0000   0.0000   0.2339
  -4.700  -0.5054   0.00745   0.00243  -0.0056  0.9711  0.1506  -1.7423   0.0000   0.0000   0.0000   0.2329
  -4.600  -0.4944   0.00732   0.00236  -0.0056  0.9686  0.1623  -1.6930   0.0000   0.0000   0.0000   0.2327
  -4.500  -0.4845   0.00723   0.00230  -0.0053  0.9653  0.1702  -1.6465   0.0000   0.0000   0.0000   0.2332
  -4.400  -0.4741   0.00715   0.00224  -0.0051  0.9617  0.1780  -1.5992   0.0000   0.0000   0.0000   0.2334
  -4.300  -0.4634   0.00703   0.00218  -0.0050  0.9580  0.1886  -1.5540   0.0000   0.0000   0.0000   0.2334
  -4.200  -0.4523   0.00695   0.00212  -0.0050  0.9544  0.1959  -1.5109   0.0000   0.0000   0.0000   0.2333
  -4.100  -0.4411   0.00687   0.00206  -0.0049  0.9506  0.2048  -1.4682   0.0000   0.0000   0.0000   0.2332
  -4.000  -0.4303   0.00676   0.00200  -0.0049  0.9466  0.2159  -1.4264   0.0000   0.0000   0.0000   0.2331
  -3.900  -0.4197   0.00669   0.00195  -0.0047  0.9430  0.2235  -1.3853   0.0000   0.0000   0.0000   0.2333
  -3.800  -0.4095   0.00658   0.00189  -0.0045  0.9387  0.2366  -1.3454   0.0000   0.0000   0.0000   0.2335
  -3.700  -0.3989   0.00650   0.00184  -0.0043  0.9339  0.2459  -1.3050   0.0000   0.0000   0.0000   0.2337
  -3.600  -0.3883   0.00643   0.00179  -0.0042  0.9287  0.2548  -1.2649   0.0000   0.0000   0.0000   0.2339
  -3.500  -0.3780   0.00635   0.00174  -0.0040  0.9232  0.2655  -1.2267   0.0000   0.0000   0.0000   0.2342
  -3.400  -0.3672   0.00629   0.00169  -0.0038  0.9185  0.2739  -1.1910   0.0000   0.0000   0.0000   0.2343
  -3.300  -0.3566   0.00619   0.00165  -0.0037  0.9136  0.2867  -1.1560   0.0000   0.0000   0.0000   0.2344
  -3.200  -0.3460   0.00613   0.00161  -0.0035  0.9077  0.2973  -1.1211   0.0000   0.0000   0.0000   0.2346
  -3.100  -0.3354   0.00607   0.00156  -0.0034  0.9013  0.3072  -1.0866   0.0000   0.0000   0.0000   0.2348
  -3.000  -0.3251   0.00600   0.00152  -0.0031  0.8945  0.3180  -1.0527   0.0000   0.0000   0.0000   0.2352
  -2.900  -0.3141   0.00596   0.00148  -0.0031  0.8892  0.3262  -1.0186   0.0000   0.0000   0.0000   0.2352
  -2.800  -0.3034   0.00588   0.00144  -0.0029  0.8828  0.3389  -0.9884   0.0000   0.0000   0.0000   0.2353
  -2.700  -0.2928   0.00582   0.00140  -0.0028  0.8755  0.3498  -0.9583   0.0000   0.0000   0.0000   0.2355
  -2.600  -0.2823   0.00579   0.00136  -0.0026  0.8678  0.3599  -0.9286   0.0000   0.0000   0.0000   0.2359
  -2.500  -0.2714   0.00572   0.00133  -0.0025  0.8616  0.3709  -0.8987   0.0000   0.0000   0.0000   0.2359
  -2.400  -0.2604   0.00569   0.00130  -0.0024  0.8542  0.3793  -0.8687   0.0000   0.0000   0.0000   0.2359
  -2.300  -0.2499   0.00563   0.00127  -0.0022  0.8460  0.3919  -0.8428   0.0000   0.0000   0.0000   0.2362
  -2.200  -0.2393   0.00560   0.00124  -0.0021  0.8381  0.4029  -0.8168   0.0000   0.0000   0.0000   0.2364
  -2.100  -0.2283   0.00556   0.00122  -0.0020  0.8308  0.4130  -0.7906   0.0000   0.0000   0.0000   0.2364
  -2.000  -0.2176   0.00551   0.00119  -0.0019  0.8219  0.4238  -0.7650   0.0000   0.0000   0.0000   0.2366
  -1.800  -0.1959   0.00545   0.00114  -0.0017  0.8055  0.4450  -0.7182   0.0000   0.0000   0.0000   0.2368
  -1.700  -0.1851   0.00542   0.00112  -0.0016  0.7964  0.4559  -0.6956   0.0000   0.0000   0.0000   0.2369
  -1.500  -0.1635   0.00537   0.00107  -0.0013  0.7786  0.4764  -0.6524   0.0000   0.0000   0.0000   0.2372
  -1.400  -0.1525   0.00536   0.00106  -0.0013  0.7691  0.4857  -0.6325   0.0000   0.0000   0.0000   0.2371
  -1.200  -0.1309   0.00530   0.00102  -0.0010  0.7509  0.5086  -0.5936   0.0000   0.0000   0.0000   0.2374
  -1.100  -0.1199   0.00530   0.00101  -0.0010  0.7407  0.5173  -0.5759   0.0000   0.0000   0.0000   0.2374
  -1.000  -0.1093   0.00528   0.00100  -0.0008  0.7304  0.5285  -0.5590   0.0000   0.0000   0.0000   0.2380
  -0.900  -0.0981   0.00527   0.00099  -0.0008  0.7219  0.5385  -0.5418   0.0000   0.0000   0.0000   0.2375
  -0.800  -0.0873   0.00525   0.00098  -0.0007  0.7117  0.5495  -0.5251   0.0000   0.0000   0.0000   0.2378
  -0.700  -0.0765   0.00524   0.00097  -0.0006  0.7018  0.5606  -0.5103   0.0000   0.0000   0.0000   0.2381
  -0.600  -0.0653   0.00524   0.00096  -0.0005  0.6923  0.5688  -0.4952   0.0000   0.0000   0.0000   0.2374
  -0.500  -0.0547   0.00522   0.00095  -0.0004  0.6813  0.5802  -0.4806   0.0000   0.0000   0.0000   0.2383
  -0.400  -0.0437   0.00522   0.00095  -0.0003  0.6721  0.5907  -0.4662   0.0000   0.0000   0.0000   0.2380
  -0.300  -0.0327   0.00521   0.00094  -0.0003  0.6625  0.6007  -0.4531   0.0000   0.0000   0.0000   0.2374
  -0.100  -0.0108   0.00521   0.00094  -0.0001  0.6420  0.6208  -0.4271   0.0000   0.0000   0.0000   0.2362
   0.000   0.0000   0.00520   0.00094  -0.0000  0.6312  0.6312  -0.4146   0.0000   0.0000   0.0000   0.4441
   0.100   0.0108   0.00521   0.00094   0.0001  0.6208  0.6420  -0.4271   0.0000   0.0000   0.0000   0.2362
   0.300   0.0327   0.00521   0.00094   0.0003  0.6007  0.6625  -0.4531   0.0000   0.0000   0.0000   0.2374
   0.400   0.0437   0.00522   0.00095   0.0003  0.5907  0.6721  -0.4662   0.0000   0.0000   0.0000   0.2380
   0.500   0.0547   0.00522   0.00095   0.0004  0.5802  0.6813  -0.4806   0.0000   0.0000   0.0000   0.2383
   0.600   0.0653   0.00524   0.00096   0.0005  0.5688  0.6923  -0.4952   0.0000   0.0000   0.0000   0.2374
   0.700   0.0765   0.00524   0.00097   0.0006  0.5606  0.7018  -0.5103   0.0000   0.0000   0.0000   0.2381
   0.800   0.0873   0.00525   0.00098   0.0007  0.5495  0.7117  -0.5251   0.0000   0.0000   0.0000   0.2378
   0.900   0.0981   0.00527   0.00099   0.0008  0.5385  0.7219  -0.5418   0.0000   0.0000   0.0000   0.2375
   1.000   0.1093   0.00528   0.00100   0.0008  0.5285  0.7304  -0.5590   0.0000   0.0000   0.0000   0.2380
   1.100   0.1199   0.00530   0.00101   0.0010  0.5173  0.7407  -0.5759   0.0000   0.0000   0.0000   0.2374
   1.200   0.1309   0.00530   0.00102   0.0010  0.5086  0.7509  -0.5936   0.0000   0.0000   0.0000   0.2375
   1.400   0.1525   0.00536   0.00106   0.0013  0.4857  0.7691  -0.6325   0.0000   0.0000   0.0000   0.2371
   1.500   0.1635   0.00537   0.00107   0.0013  0.4764  0.7786  -0.6524   0.0000   0.0000   0.0000   0.2372
   1.700   0.1851   0.00542   0.00112   0.0016  0.4559  0.7964  -0.6956   0.0000   0.0000   0.0000   0.2369
   1.800   0.1960   0.00545   0.00114   0.0017  0.4450  0.8055  -0.7182   0.0000   0.0000   0.0000   0.2368
   2.000   0.2176   0.00551   0.00119   0.0019  0.4238  0.8219  -0.7650   0.0000   0.0000   0.0000   0.2366
   2.100   0.2283   0.00556   0.00122   0.0020  0.4130  0.8308  -0.7906   0.0000   0.0000   0.0000   0.2364
   2.200   0.2393   0.00560   0.00124   0.0021  0.4029  0.8381  -0.8168   0.0000   0.0000   0.0000   0.2365
   2.300   0.2500   0.00563   0.00127   0.0022  0.3919  0.8460  -0.8428   0.0000   0.0000   0.0000   0.2362
   2.400   0.2605   0.00569   0.00130   0.0024  0.3793  0.8542  -0.8688   0.0000   0.0000   0.0000   0.2359
   2.500   0.2714   0.00572   0.00133   0.0025  0.3709  0.8616  -0.8987   0.0000   0.0000   0.0000   0.2359
   2.600   0.2823   0.00579   0.00136   0.0026  0.3599  0.8678  -0.9286   0.0000   0.0000   0.0000   0.2359
   2.700   0.2928   0.00582   0.00140   0.0028  0.3498  0.8755  -0.9583   0.0000   0.0000   0.0000   0.2355
   2.800   0.3034   0.00588   0.00144   0.0029  0.3389  0.8828  -0.9884   0.0000   0.0000   0.0000   0.2353
   2.900   0.3141   0.00596   0.00148   0.0031  0.3262  0.8892  -1.0186   0.0000   0.0000   0.0000   0.2352
   3.000   0.3251   0.00600   0.00152   0.0031  0.3180  0.8945  -1.0527   0.0000   0.0000   0.0000   0.2353
   3.100   0.3354   0.00607   0.00156   0.0034  0.3072  0.9013  -1.0866   0.0000   0.0000   0.0000   0.2348
   3.200   0.3460   0.00613   0.00161   0.0035  0.2973  0.9077  -1.1212   0.0000   0.0000   0.0000   0.2346
   3.300   0.3566   0.00619   0.00165   0.0037  0.2867  0.9136  -1.1561   0.0000   0.0000   0.0000   0.2344
   3.400   0.3672   0.00629   0.00169   0.0038  0.2739  0.9185  -1.1910   0.0000   0.0000   0.0000   0.2343
   3.500   0.3780   0.00635   0.00174   0.0039  0.2655  0.9232  -1.2267   0.0000   0.0000   0.0000   0.2342
   3.600   0.3883   0.00643   0.00179   0.0042  0.2548  0.9287  -1.2650   0.0000   0.0000   0.0000   0.2339
   3.700   0.3989   0.00650   0.00184   0.0043  0.2459  0.9339  -1.3051   0.0000   0.0000   0.0000   0.2337
   3.800   0.4095   0.00658   0.00189   0.0045  0.2366  0.9387  -1.3454   0.0000   0.0000   0.0000   0.2335
   3.900   0.4197   0.00669   0.00195   0.0047  0.2235  0.9430  -1.3853   0.0000   0.0000   0.0000   0.2333
   4.000   0.4303   0.00676   0.00200   0.0048  0.2159  0.9466  -1.4265   0.0000   0.0000   0.0000   0.2332
   4.100   0.4412   0.00687   0.00206   0.0049  0.2048  0.9506  -1.4682   0.0000   0.0000   0.0000   0.2332
   4.200   0.4523   0.00695   0.00212   0.0050  0.1959  0.9544  -1.5109   0.0000   0.0000   0.0000   0.2333
   4.300   0.4634   0.00703   0.00218   0.0050  0.1886  0.9580  -1.5541   0.0000   0.0000   0.0000   0.2334
   4.400   0.4741   0.00715   0.00224   0.0051  0.1780  0.9617  -1.5992   0.0000   0.0000   0.0000   0.2334
   4.500   0.4845   0.00723   0.00230   0.0053  0.1702  0.9653  -1.6466   0.0000   0.0000   0.0000   0.2332
   4.600   0.4944   0.00732   0.00236   0.0056  0.1623  0.9686  -1.6930   0.0000   0.0000   0.0000   0.2327
   4.700   0.5055   0.00745   0.00243   0.0056  0.1506  0.9711  -1.7424   0.0000   0.0000   0.0000   0.2329
   4.800   0.5184   0.00753   0.00249   0.0052  0.1446  0.9730  -1.7965   0.0000   0.0000   0.0000   0.2339
   4.900   0.5312   0.00764   0.00256   0.0048  0.1372  0.9749  -1.8507   0.0000   0.0000   0.0000   0.2348
   5.000   0.5439   0.00777   0.00264   0.0045  0.1272  0.9767  -1.9049   0.0000   0.0000   0.0000   0.2356
   5.100   0.5566   0.00785   0.00271   0.0041  0.1227  0.9785  -1.9602   0.0000   0.0000   0.0000   0.2364
   5.200   0.5691   0.00795   0.00278   0.0038  0.1168  0.9803  -2.0150   0.0000   0.0000   0.0000   0.2370
   5.300   0.5813   0.00809   0.00287   0.0036  0.1085  0.9821  -2.0697   0.0000   0.0000   0.0000   0.2375
   5.400   0.5938   0.00819   0.00295   0.0033  0.1024  0.9837  -2.1256   0.0000   0.0000   0.0000   0.2381
   5.500   0.6063   0.00828   0.00302   0.0030  0.0979  0.9853  -2.1870   0.0000   0.0000   0.0000   0.2387
   5.600   0.6185   0.00841   0.00310   0.0027  0.0919  0.9868  -2.2496   0.0000   0.0000   0.0000   0.2391
   5.700   0.6304   0.00854   0.00320   0.0025  0.0848  0.9882  -2.3117   0.0000   0.0000   0.0000   0.2395
   5.800   0.6421   0.00862   0.00327   0.0024  0.0822  0.9896  -2.3740   0.0000   0.0000   0.0000   0.2396
   5.900   0.6561   0.00872   0.00335   0.0017  0.0789  0.9900  -2.4435   0.0000   0.0000   0.0000   0.2406
   6.000   0.6701   0.00884   0.00343   0.0011  0.0747  0.9904  -2.5130   0.0000   0.0000   0.0000   0.2416
   6.100   0.6838   0.00898   0.00353   0.0004  0.0691  0.9909  -2.5824   0.0000   0.0000   0.0000   0.2425
   6.200   0.6977   0.00907   0.00363  -0.0002  0.0657  0.9914  -2.6530   0.0000   0.0000   0.0000   0.2433
   6.300   0.7116   0.00916   0.00371  -0.0008  0.0639  0.9919  -2.7247   0.0000   0.0000   0.0000   0.2441
   6.400   0.7253   0.00927   0.00379  -0.0014  0.0611  0.9925  -2.7964   0.0000   0.0000   0.0000   0.2449
   6.500   0.7388   0.00940   0.00389  -0.0020  0.0575  0.9931  -2.8677   0.0000   0.0000   0.0000   0.2455
   6.600   0.7521   0.00955   0.00401  -0.0025  0.0529  0.9938  -2.9385   0.0000   0.0000   0.0000   0.2461
   6.700   0.7657   0.00963   0.00410  -0.0031  0.0513  0.9944  -3.0117   0.0000   0.0000   0.0000   0.2467
   6.800   0.7793   0.00972   0.00418  -0.0036  0.0501  0.9950  -3.0857   0.0000   0.0000   0.0000   0.2472
   6.900   0.7927   0.00982   0.00427  -0.0042  0.0485  0.9957  -3.1617   0.0000   0.0000   0.0000   0.2477
   7.000   0.8059   0.00994   0.00437  -0.0047  0.0466  0.9964  -3.2437   0.0000   0.0000   0.0000   0.2482
   7.100   0.8190   0.01008   0.00448  -0.0052  0.0442  0.9970  -3.3257   0.0000   0.0000   0.0000   0.2486
   7.200   0.8320   0.01024   0.00462  -0.0056  0.0412  0.9977  -3.4066   0.0000   0.0000   0.0000   0.2490
   7.300   0.8453   0.01034   0.00473  -0.0061  0.0400  0.9982  -3.4902   0.0000   0.0000   0.0000   0.2494
   7.400   0.8586   0.01042   0.00482  -0.0066  0.0395  0.9987  -3.5762   0.0000   0.0000   0.0000   0.2497
   7.500   0.8719   0.01051   0.00491  -0.0071  0.0387  0.9992  -3.6623   0.0000   0.0000   0.0000   0.2501
   7.600   0.8850   0.01062   0.00502  -0.0076  0.0377  0.9996  -3.7486   0.0000   0.0000   0.0000   0.2504
   7.700   0.8978   0.01074   0.00512  -0.0080  0.0365  1.0000  -3.8341   0.0000   0.0000   0.0000   0.2507
   7.800   0.9061   0.01086   0.00522  -0.0075  0.0354  1.0000  -3.9041   0.0000   0.0000   0.0000   0.2499
   7.900   0.9142   0.01098   0.00533  -0.0069  0.0340  1.0000  -3.9736   0.0000   0.0000   0.0000   0.2491
   8.000   0.9222   0.01113   0.00548  -0.0063  0.0324  1.0000  -4.0413   0.0000   0.0000   0.0000   0.2483
   8.100   0.9302   0.01129   0.00564  -0.0057  0.0310  1.0000  -4.1086   0.0000   0.0000   0.0000   0.2474
   8.200   0.9389   0.01136   0.00571  -0.0052  0.0308  1.0000  -4.1833   0.0000   0.0000   0.0000   0.2468
   8.300   0.9476   0.01143   0.00580  -0.0048  0.0305  1.0000  -4.2580   0.0000   0.0000   0.0000   0.2461
   8.400   0.9563   0.01152   0.00589  -0.0043  0.0302  1.0000  -4.3328   0.0000   0.0000   0.0000   0.2454
   8.500   0.9649   0.01161   0.00599  -0.0038  0.0297  1.0000  -4.4077   0.0000   0.0000   0.0000   0.2448
   8.600   0.9735   0.01171   0.00610  -0.0033  0.0292  1.0000  -4.4828   0.0000   0.0000   0.0000   0.2441
   8.700   0.9821   0.01181   0.00620  -0.0028  0.0287  1.0000  -4.5581   0.0000   0.0000   0.0000   0.2435
   8.800   0.9906   0.01193   0.00632  -0.0023  0.0281  1.0000  -4.6336   0.0000   0.0000   0.0000   0.2429
   8.900   0.9990   0.01205   0.00644  -0.0018  0.0274  1.0000  -4.7093   0.0000   0.0000   0.0000   0.2422
   9.000   1.0074   0.01219   0.00656  -0.0013  0.0268  1.0000  -4.7849   0.0000   0.0000   0.0000   0.2416
   9.100   1.0158   0.01234   0.00670  -0.0008  0.0260  1.0000  -4.8598   0.0000   0.0000   0.0000   0.2409
   9.200   1.0239   0.01251   0.00688  -0.0003  0.0251  1.0000  -4.9322   0.0000   0.0000   0.0000   0.2403
   9.300   1.0315   0.01274   0.00713   0.0004  0.0241  1.0000  -5.0001   0.0000   0.0000   0.0000   0.2395
   9.400   1.0400   0.01289   0.00730   0.0009  0.0237  1.0000  -5.0758   0.0000   0.0000   0.0000   0.2389
   9.500   1.0490   0.01299   0.00740   0.0013  0.0236  1.0000  -5.1573   0.0000   0.0000   0.0000   0.2385
   9.600   1.0580   0.01309   0.00751   0.0016  0.0234  1.0000  -5.2389   0.0000   0.0000   0.0000   0.2380
   9.700   1.0670   0.01320   0.00763   0.0020  0.0232  1.0000  -5.3207   0.0000   0.0000   0.0000   0.2375
   9.800   1.0760   0.01331   0.00775   0.0024  0.0230  1.0000  -5.4063   0.0000   0.0000   0.0000   0.2370
   9.900   1.0850   0.01343   0.00788   0.0028  0.0227  1.0000  -5.4973   0.0000   0.0000   0.0000   0.2366
  10.000   1.0940   0.01355   0.00802   0.0032  0.0224  1.0000  -5.5889   0.0000   0.0000   0.0000   0.2361
  10.100   1.1030   0.01368   0.00815   0.0035  0.0221  1.0000  -5.6811   0.0000   0.0000   0.0000   0.2357
  10.200   1.1121   0.01381   0.00829   0.0039  0.0218  1.0000  -5.7740   0.0000   0.0000   0.0000   0.2353
  10.300   1.1211   0.01396   0.00844   0.0042  0.0215  1.0000  -5.8673   0.0000   0.0000   0.0000   0.2349
  10.400   1.1301   0.01410   0.00859   0.0045  0.0212  1.0000  -5.9610   0.0000   0.0000   0.0000   0.2345
  10.500   1.1391   0.01426   0.00875   0.0049  0.0208  1.0000  -6.0551   0.0000   0.0000   0.0000   0.2341
  10.600   1.1480   0.01442   0.00891   0.0052  0.0204  1.0000  -6.1493   0.0000   0.0000   0.0000   0.2337
  10.700   1.1568   0.01460   0.00909   0.0056  0.0200  1.0000  -6.2434   0.0000   0.0000   0.0000   0.2333
  10.800   1.1655   0.01480   0.00929   0.0059  0.0195  1.0000  -6.3359   0.0000   0.0000   0.0000   0.2329
  10.900   1.1736   0.01505   0.00955   0.0064  0.0190  1.0000  -6.4245   0.0000   0.0000   0.0000   0.2324
  11.000   1.1810   0.01537   0.00991   0.0070  0.0183  1.0000  -6.5057   0.0000   0.0000   0.0000   0.2318
  11.100   1.1884   0.01568   0.01026   0.0075  0.0179  1.0000  -6.5891   0.0000   0.0000   0.0000   0.2312
  11.200   1.1979   0.01580   0.01039   0.0077  0.0178  1.0000  -6.6910   0.0000   0.0000   0.0000   0.2310
  11.300   1.2072   0.01593   0.01052   0.0080  0.0177  1.0000  -6.7928   0.0000   0.0000   0.0000   0.2307
  11.400   1.2164   0.01607   0.01067   0.0082  0.0176  1.0000  -6.8940   0.0000   0.0000   0.0000   0.2303
  11.500   1.2255   0.01622   0.01083   0.0085  0.0175  1.0000  -6.9947   0.0000   0.0000   0.0000   0.2300
  11.600   1.2345   0.01638   0.01101   0.0088  0.0174  1.0000  -7.0953   0.0000   0.0000   0.0000   0.2297
  11.700   1.2434   0.01654   0.01119   0.0091  0.0172  1.0000  -7.1958   0.0000   0.0000   0.0000   0.2294
  11.800   1.2522   0.01671   0.01138   0.0094  0.0171  1.0000  -7.2962   0.0000   0.0000   0.0000   0.2290
  11.900   1.2610   0.01689   0.01157   0.0097  0.0169  1.0000  -7.3967   0.0000   0.0000   0.0000   0.2287
  12.000   1.2696   0.01707   0.01176   0.0101  0.0167  1.0000  -7.4972   0.0000   0.0000   0.0000   0.2283
  12.100   1.2782   0.01726   0.01197   0.0104  0.0166  1.0000  -7.5977   0.0000   0.0000   0.0000   0.2279
  12.200   1.2867   0.01745   0.01217   0.0107  0.0164  1.0000  -7.6983   0.0000   0.0000   0.0000   0.2276
  12.300   1.2951   0.01764   0.01238   0.0111  0.0162  1.0000  -7.7991   0.0000   0.0000   0.0000   0.2272
  12.400   1.3034   0.01784   0.01259   0.0114  0.0160  1.0000  -7.9000   0.0000   0.0000   0.0000   0.2268
  12.500   1.3116   0.01804   0.01281   0.0118  0.0159  1.0000  -8.0010   0.0000   0.0000   0.0000   0.2265
  12.600   1.3197   0.01825   0.01303   0.0122  0.0157  1.0000  -8.1017   0.0000   0.0000   0.0000   0.2261
  12.700   1.3277   0.01847   0.01326   0.0126  0.0155  1.0000  -8.2022   0.0000   0.0000   0.0000   0.2257
  12.800   1.3355   0.01869   0.01349   0.0130  0.0154  1.0000  -8.3024   0.0000   0.0000   0.0000   0.2253
  12.900   1.3432   0.01892   0.01373   0.0134  0.0152  1.0000  -8.4020   0.0000   0.0000   0.0000   0.2248
  13.000   1.3507   0.01917   0.01399   0.0138  0.0150  1.0000  -8.5006   0.0000   0.0000   0.0000   0.2244
  13.100   1.3579   0.01942   0.01426   0.0143  0.0148  1.0000  -8.5977   0.0000   0.0000   0.0000   0.2239
  13.200   1.3648   0.01970   0.01455   0.0148  0.0146  1.0000  -8.6923   0.0000   0.0000   0.0000   0.2235
  13.300   1.3712   0.02001   0.01488   0.0154  0.0144  1.0000  -8.7832   0.0000   0.0000   0.0000   0.2229
  13.400   1.3769   0.02036   0.01527   0.0161  0.0141  1.0000  -8.8689   0.0000   0.0000   0.0000   0.2223
  13.500   1.3817   0.02077   0.01571   0.0168  0.0139  1.0000  -8.9474   0.0000   0.0000   0.0000   0.2217
  13.600   1.3850   0.02124   0.01622   0.0178  0.0136  1.0000  -9.0149   0.0000   0.0000   0.0000   0.2208
  13.700   1.3858   0.02177   0.01682   0.0192  0.0134  1.0000  -9.0655   0.0000   0.0000   0.0000   0.2197
  13.800   1.3841   0.02244   0.01755   0.0208  0.0132  1.0000  -9.0983   0.0000   0.0000   0.0000   0.2183
  13.900   1.3886   0.02276   0.01790   0.0216  0.0131  1.0000  -9.1808   0.0000   0.0000   0.0000   0.2176
  14.000   1.3940   0.02303   0.01819   0.0223  0.0131  1.0000  -9.2715   0.0000   0.0000   0.0000   0.2170
  14.100   1.3994   0.02331   0.01849   0.0229  0.0131  1.0000  -9.3620   0.0000   0.0000   0.0000   0.2165
  14.200   1.4047   0.02360   0.01880   0.0235  0.0130  1.0000  -9.4524   0.0000   0.0000   0.0000   0.2159
  14.300   1.4097   0.02391   0.01913   0.0242  0.0130  1.0000  -9.5408   0.0000   0.0000   0.0000   0.2153
  14.400   1.4145   0.02423   0.01948   0.0248  0.0129  1.0000  -9.6281   0.0000   0.0000   0.0000   0.2148
  14.500   1.4192   0.02457   0.01984   0.0254  0.0129  1.0000  -9.7152   0.0000   0.0000   0.0000   0.2142
  14.600   1.4238   0.02494   0.02023   0.0260  0.0128  1.0000  -9.8009   0.0000   0.0000   0.0000   0.2137
  14.700   1.4281   0.02533   0.02065   0.0265  0.0128  1.0000  -9.8851   0.0000   0.0000   0.0000   0.2132
  14.800   1.4323   0.02573   0.02108   0.0271  0.0127  1.0000  -9.9684   0.0000   0.0000   0.0000   0.2126
  14.900   1.4361   0.02616   0.02154   0.0277  0.0127  1.0000  -10.0494   0.0000   0.0000   0.0000   0.2121
  15.000   1.4397   0.02662   0.02202   0.0282  0.0126  1.0000  -10.1287   0.0000   0.0000   0.0000   0.2116


