xflr5 v6.61

 Calculated polar for: NACA 0012

 1 1 Reynolds number fixed          Mach number fixed         

 xtrf =   1.000 (top)        1.000 (bottom)
 Mach =   0.000     Re =     1.300 e 6     Ncrit =   9.000

  alpha     CL        CD       CDp       Cm    Top Xtr Bot Xtr   Cpmin    Chinge    XCp    
 ------- -------- --------- --------- -------- ------- ------- -------- --------- ---------
 -15.000  -1.4174   0.02825   0.02369  -0.0298  1.0000  0.0129  -9.9477   0.0000   0.0000   0.0000   0.2102
 -14.900  -1.4139   0.02773   0.02314  -0.0293  1.0000  0.0129  -9.8706   0.0000   0.0000   0.0000   0.2106
 -14.800  -1.4103   0.02725   0.02263  -0.0289  1.0000  0.0129  -9.7921   0.0000   0.0000   0.0000   0.2111
 -14.700  -1.4063   0.02680   0.02215  -0.0284  1.0000  0.0130  -9.7114   0.0000   0.0000   0.0000   0.2115
 -14.600  -1.4024   0.02637   0.02170  -0.0279  1.0000  0.0130  -9.6307   0.0000   0.0000   0.0000   0.2120
 -14.500  -1.3982   0.02597   0.02127  -0.0274  1.0000  0.0130  -9.5481   0.0000   0.0000   0.0000   0.2125
 -14.400  -1.3937   0.02559   0.02086  -0.0268  1.0000  0.0131  -9.4638   0.0000   0.0000   0.0000   0.2130
 -14.300  -1.3891   0.02522   0.02047  -0.0263  1.0000  0.0131  -9.3788   0.0000   0.0000   0.0000   0.2136
 -14.200  -1.3843   0.02487   0.02010  -0.0257  1.0000  0.0131  -9.2926   0.0000   0.0000   0.0000   0.2141
 -14.100  -1.3865   0.02408   0.01924  -0.0244  1.0000  0.0133  -9.2642   0.0000   0.0000   0.0000   0.2152
 -14.000  -1.3883   0.02335   0.01844  -0.0230  1.0000  0.0135  -9.2324   0.0000   0.0000   0.0000   0.2164
 -13.900  -1.3885   0.02274   0.01778  -0.0217  1.0000  0.0137  -9.1869   0.0000   0.0000   0.0000   0.2175
 -13.800  -1.3872   0.02223   0.01723  -0.0205  1.0000  0.0139  -9.1304   0.0000   0.0000   0.0000   0.2186
 -13.700  -1.3849   0.02180   0.01676  -0.0194  1.0000  0.0141  -9.0652   0.0000   0.0000   0.0000   0.2195
 -13.600  -1.3814   0.02142   0.01636  -0.0184  1.0000  0.0143  -8.9919   0.0000   0.0000   0.0000   0.2204
 -13.500  -1.3768   0.02109   0.01600  -0.0175  1.0000  0.0145  -8.9108   0.0000   0.0000   0.0000   0.2211
 -13.400  -1.3709   0.02078   0.01566  -0.0169  1.0000  0.0147  -8.8216   0.0000   0.0000   0.0000   0.2217
 -13.300  -1.3645   0.02049   0.01535  -0.0163  1.0000  0.0149  -8.7290   0.0000   0.0000   0.0000   0.2222
 -13.200  -1.3578   0.02022   0.01507  -0.0158  1.0000  0.0151  -8.6340   0.0000   0.0000   0.0000   0.2227
 -13.100  -1.3508   0.01996   0.01480  -0.0153  1.0000  0.0152  -8.5376   0.0000   0.0000   0.0000   0.2232
 -13.000  -1.3436   0.01972   0.01454  -0.0148  1.0000  0.0154  -8.4401   0.0000   0.0000   0.0000   0.2236
 -12.900  -1.3362   0.01948   0.01429  -0.0144  1.0000  0.0156  -8.3420   0.0000   0.0000   0.0000   0.2241
 -12.800  -1.3286   0.01925   0.01404  -0.0139  1.0000  0.0157  -8.2434   0.0000   0.0000   0.0000   0.2245
 -12.700  -1.3209   0.01903   0.01381  -0.0135  1.0000  0.0159  -8.1442   0.0000   0.0000   0.0000   0.2249
 -12.600  -1.3130   0.01881   0.01357  -0.0131  1.0000  0.0161  -8.0450   0.0000   0.0000   0.0000   0.2253
 -12.500  -1.3051   0.01859   0.01334  -0.0127  1.0000  0.0162  -7.9459   0.0000   0.0000   0.0000   0.2257
 -12.400  -1.2970   0.01838   0.01312  -0.0123  1.0000  0.0164  -7.8468   0.0000   0.0000   0.0000   0.2261
 -12.300  -1.2889   0.01818   0.01289  -0.0120  1.0000  0.0166  -7.7477   0.0000   0.0000   0.0000   0.2265
 -12.200  -1.2807   0.01798   0.01267  -0.0116  1.0000  0.0167  -7.6485   0.0000   0.0000   0.0000   0.2269
 -12.100  -1.2723   0.01778   0.01246  -0.0112  1.0000  0.0169  -7.5493   0.0000   0.0000   0.0000   0.2273
 -12.000  -1.2639   0.01759   0.01225  -0.0109  1.0000  0.0171  -7.4500   0.0000   0.0000   0.0000   0.2276
 -11.900  -1.2554   0.01740   0.01205  -0.0105  1.0000  0.0172  -7.3506   0.0000   0.0000   0.0000   0.2280
 -11.800  -1.2467   0.01722   0.01186  -0.0102  1.0000  0.0174  -7.2510   0.0000   0.0000   0.0000   0.2283
 -11.700  -1.2380   0.01705   0.01167  -0.0099  1.0000  0.0175  -7.1512   0.0000   0.0000   0.0000   0.2287
 -11.600  -1.2291   0.01689   0.01149  -0.0096  1.0000  0.0176  -7.0512   0.0000   0.0000   0.0000   0.2290
 -11.500  -1.2202   0.01673   0.01131  -0.0093  1.0000  0.0177  -6.9511   0.0000   0.0000   0.0000   0.2294
 -11.400  -1.2111   0.01659   0.01116  -0.0090  1.0000  0.0178  -6.8502   0.0000   0.0000   0.0000   0.2297
 -11.300  -1.2018   0.01646   0.01102  -0.0088  1.0000  0.0179  -6.7487   0.0000   0.0000   0.0000   0.2300
 -11.200  -1.1938   0.01621   0.01075  -0.0083  1.0000  0.0181  -6.6583   0.0000   0.0000   0.0000   0.2304
 -11.100  -1.1874   0.01580   0.01029  -0.0077  1.0000  0.0187  -6.5840   0.0000   0.0000   0.0000   0.2311
 -11.000  -1.1797   0.01551   0.00998  -0.0071  1.0000  0.0193  -6.4988   0.0000   0.0000   0.0000   0.2316
 -10.900  -1.1714   0.01528   0.00974  -0.0067  1.0000  0.0198  -6.4079   0.0000   0.0000   0.0000   0.2321
 -10.800  -1.1627   0.01509   0.00955  -0.0064  1.0000  0.0203  -6.3141   0.0000   0.0000   0.0000   0.2325
 -10.700  -1.1539   0.01491   0.00937  -0.0060  1.0000  0.0206  -6.2195   0.0000   0.0000   0.0000   0.2329
 -10.600  -1.1450   0.01475   0.00920  -0.0057  1.0000  0.0210  -6.1249   0.0000   0.0000   0.0000   0.2332
 -10.500  -1.1361   0.01459   0.00904  -0.0054  1.0000  0.0213  -6.0306   0.0000   0.0000   0.0000   0.2336
 -10.400  -1.1271   0.01443   0.00888  -0.0050  1.0000  0.0216  -5.9366   0.0000   0.0000   0.0000   0.2340
 -10.300  -1.1180   0.01429   0.00873  -0.0047  1.0000  0.0219  -5.8430   0.0000   0.0000   0.0000   0.2344
 -10.200  -1.1090   0.01415   0.00858  -0.0044  1.0000  0.0222  -5.7498   0.0000   0.0000   0.0000   0.2348
 -10.100  -1.0999   0.01402   0.00844  -0.0040  1.0000  0.0225  -5.6572   0.0000   0.0000   0.0000   0.2352
 -10.000  -1.0909   0.01389   0.00829  -0.0037  1.0000  0.0228  -5.5653   0.0000   0.0000   0.0000   0.2356
  -9.900  -1.0818   0.01376   0.00815  -0.0033  1.0000  0.0231  -5.4738   0.0000   0.0000   0.0000   0.2361
  -9.800  -1.0728   0.01364   0.00802  -0.0030  1.0000  0.0233  -5.3828   0.0000   0.0000   0.0000   0.2365
  -9.700  -1.0637   0.01353   0.00790  -0.0026  1.0000  0.0235  -5.2970   0.0000   0.0000   0.0000   0.2370
  -9.600  -1.0547   0.01343   0.00779  -0.0022  1.0000  0.0236  -5.2151   0.0000   0.0000   0.0000   0.2374
  -9.500  -1.0456   0.01333   0.00768  -0.0018  1.0000  0.0238  -5.1334   0.0000   0.0000   0.0000   0.2379
  -9.400  -1.0379   0.01311   0.00744  -0.0012  1.0000  0.0244  -5.0638   0.0000   0.0000   0.0000   0.2386
  -9.300  -1.0302   0.01288   0.00719  -0.0006  1.0000  0.0253  -4.9952   0.0000   0.0000   0.0000   0.2393
  -9.200  -1.0221   0.01270   0.00701  -0.0001  1.0000  0.0262  -4.9219   0.0000   0.0000   0.0000   0.2399
  -9.100  -1.0137   0.01255   0.00686   0.0004  1.0000  0.0269  -4.8465   0.0000   0.0000   0.0000   0.2406
  -9.000  -1.0052   0.01241   0.00673   0.0009  1.0000  0.0275  -4.7704   0.0000   0.0000   0.0000   0.2412
  -8.900  -0.9967   0.01228   0.00661   0.0014  1.0000  0.0281  -4.6942   0.0000   0.0000   0.0000   0.2418
  -8.800  -0.9882   0.01216   0.00649   0.0019  1.0000  0.0287  -4.6183   0.0000   0.0000   0.0000   0.2424
  -8.700  -0.9796   0.01205   0.00638   0.0024  1.0000  0.0292  -4.5426   0.0000   0.0000   0.0000   0.2430
  -8.600  -0.9709   0.01195   0.00627   0.0028  1.0000  0.0297  -4.4671   0.0000   0.0000   0.0000   0.2436
  -8.500  -0.9622   0.01185   0.00616   0.0033  1.0000  0.0302  -4.3918   0.0000   0.0000   0.0000   0.2443
  -8.400  -0.9535   0.01177   0.00607   0.0038  1.0000  0.0305  -4.3166   0.0000   0.0000   0.0000   0.2449
  -8.300  -0.9448   0.01169   0.00598   0.0042  1.0000  0.0308  -4.2414   0.0000   0.0000   0.0000   0.2456
  -8.200  -0.9360   0.01162   0.00590   0.0047  1.0000  0.0310  -4.1663   0.0000   0.0000   0.0000   0.2462
  -8.100  -0.9282   0.01145   0.00572   0.0053  1.0000  0.0324  -4.0997   0.0000   0.0000   0.0000   0.2470
  -8.000  -0.9203   0.01129   0.00557   0.0059  1.0000  0.0340  -4.0323   0.0000   0.0000   0.0000   0.2479
  -7.900  -0.9121   0.01115   0.00545   0.0065  1.0000  0.0353  -3.9627   0.0000   0.0000   0.0000   0.2486
  -7.800  -0.9039   0.01103   0.00535   0.0071  1.0000  0.0364  -3.8925   0.0000   0.0000   0.0000   0.2494
  -7.700  -0.8955   0.01093   0.00525   0.0076  1.0000  0.0374  -3.8222   0.0000   0.0000   0.0000   0.2502
  -7.600  -0.8870   0.01083   0.00516   0.0081  1.0000  0.0382  -3.7520   0.0000   0.0000   0.0000   0.2509
  -7.500  -0.8769   0.01074   0.00507   0.0083  0.9999  0.0390  -3.6765   0.0000   0.0000   0.0000   0.2513
  -7.400  -0.8636   0.01066   0.00497   0.0077  0.9995  0.0397  -3.5900   0.0000   0.0000   0.0000   0.2510
  -7.300  -0.8502   0.01058   0.00489   0.0072  0.9990  0.0402  -3.5036   0.0000   0.0000   0.0000   0.2506
  -7.200  -0.8371   0.01042   0.00473   0.0068  0.9985  0.0425  -3.4222   0.0000   0.0000   0.0000   0.2503
  -7.100  -0.8241   0.01027   0.00460   0.0063  0.9979  0.0452  -3.3405   0.0000   0.0000   0.0000   0.2499
  -7.000  -0.8110   0.01013   0.00449   0.0058  0.9972  0.0473  -3.2582   0.0000   0.0000   0.0000   0.2495
  -6.900  -0.7977   0.01002   0.00439   0.0053  0.9966  0.0492  -3.1759   0.0000   0.0000   0.0000   0.2491
  -6.800  -0.7842   0.00992   0.00430   0.0047  0.9959  0.0506  -3.0982   0.0000   0.0000   0.0000   0.2486
  -6.700  -0.7706   0.00984   0.00422   0.0042  0.9952  0.0516  -3.0239   0.0000   0.0000   0.0000   0.2481
  -6.600  -0.7571   0.00973   0.00411   0.0036  0.9946  0.0545  -2.9520   0.0000   0.0000   0.0000   0.2475
  -6.500  -0.7438   0.00958   0.00400   0.0031  0.9939  0.0589  -2.8808   0.0000   0.0000   0.0000   0.2470
  -6.400  -0.7303   0.00945   0.00390   0.0025  0.9932  0.0621  -2.8092   0.0000   0.0000   0.0000   0.2463
  -6.300  -0.7166   0.00935   0.00382   0.0019  0.9926  0.0646  -2.7374   0.0000   0.0000   0.0000   0.2456
  -6.200  -0.7026   0.00927   0.00374   0.0013  0.9920  0.0661  -2.6655   0.0000   0.0000   0.0000   0.2449
  -6.100  -0.6888   0.00915   0.00363   0.0006  0.9915  0.0712  -2.5954   0.0000   0.0000   0.0000   0.2441
  -6.000  -0.6751   0.00901   0.00353   0.0000  0.9909  0.0762  -2.5259   0.0000   0.0000   0.0000   0.2432
  -5.900  -0.6612   0.00889   0.00345  -0.0006  0.9904  0.0802  -2.4562   0.0000   0.0000   0.0000   0.2423
  -5.800  -0.6470   0.00880   0.00337  -0.0013  0.9900  0.0830  -2.3863   0.0000   0.0000   0.0000   0.2413
  -5.700  -0.6331   0.00870   0.00328  -0.0020  0.9895  0.0883  -2.3181   0.0000   0.0000   0.0000   0.2403
  -5.600  -0.6218   0.00856   0.00319  -0.0020  0.9880  0.0948  -2.2575   0.0000   0.0000   0.0000   0.2402
  -5.500  -0.6096   0.00844   0.00311  -0.0023  0.9867  0.1001  -2.1950   0.0000   0.0000   0.0000   0.2398
  -5.400  -0.5969   0.00836   0.00304  -0.0026  0.9853  0.1037  -2.1321   0.0000   0.0000   0.0000   0.2392
  -5.300  -0.5843   0.00822   0.00295  -0.0030  0.9838  0.1129  -2.0763   0.0000   0.0000   0.0000   0.2386
  -5.200  -0.5717   0.00810   0.00287  -0.0033  0.9822  0.1200  -2.0207   0.0000   0.0000   0.0000   0.2379
  -5.100  -0.5590   0.00801   0.00280  -0.0037  0.9806  0.1248  -1.9649   0.0000   0.0000   0.0000   0.2372
  -5.000  -0.5463   0.00790   0.00272  -0.0040  0.9788  0.1329  -1.9102   0.0000   0.0000   0.0000   0.2365
  -4.900  -0.5339   0.00777   0.00263  -0.0043  0.9770  0.1414  -1.8563   0.0000   0.0000   0.0000   0.2358
  -4.800  -0.5208   0.00768   0.00257  -0.0047  0.9752  0.1477  -1.8015   0.0000   0.0000   0.0000   0.2349
  -4.700  -0.5080   0.00756   0.00250  -0.0051  0.9735  0.1580  -1.7476   0.0000   0.0000   0.0000   0.2339
  -4.600  -0.4951   0.00744   0.00242  -0.0055  0.9716  0.1681  -1.6944   0.0000   0.0000   0.0000   0.2329
  -4.500  -0.4825   0.00735   0.00236  -0.0059  0.9695  0.1755  -1.6419   0.0000   0.0000   0.0000   0.2320
  -4.400  -0.4731   0.00723   0.00230  -0.0055  0.9662  0.1865  -1.5970   0.0000   0.0000   0.0000   0.2326
  -4.300  -0.4629   0.00714   0.00224  -0.0053  0.9626  0.1944  -1.5528   0.0000   0.0000   0.0000   0.2329
  -4.200  -0.4519   0.00707   0.00219  -0.0052  0.9591  0.2018  -1.5101   0.0000   0.0000   0.0000   0.2329
  -4.100  -0.4411   0.00695   0.00212  -0.0051  0.9554  0.2134  -1.4680   0.0000   0.0000   0.0000   0.2328
  -4.000  -0.4298   0.00687   0.00206  -0.0051  0.9517  0.2222  -1.4253   0.0000   0.0000   0.0000   0.2326
  -3.900  -0.4188   0.00676   0.00199  -0.0050  0.9479  0.2346  -1.3836   0.0000   0.0000   0.0000   0.2324
  -3.800  -0.4082   0.00667   0.00194  -0.0049  0.9442  0.2448  -1.3428   0.0000   0.0000   0.0000   0.2325
  -3.700  -0.3976   0.00660   0.00190  -0.0047  0.9401  0.2534  -1.3026   0.0000   0.0000   0.0000   0.2327
  -3.600  -0.3873   0.00650   0.00185  -0.0045  0.9353  0.2644  -1.2630   0.0000   0.0000   0.0000   0.2329
  -3.500  -0.3766   0.00644   0.00180  -0.0044  0.9302  0.2730  -1.2245   0.0000   0.0000   0.0000   0.2331
  -3.400  -0.3662   0.00635   0.00175  -0.0042  0.9249  0.2849  -1.1895   0.0000   0.0000   0.0000   0.2333
  -3.300  -0.3557   0.00628   0.00170  -0.0040  0.9197  0.2962  -1.1545   0.0000   0.0000   0.0000   0.2335
  -3.200  -0.3449   0.00621   0.00166  -0.0039  0.9151  0.3061  -1.1194   0.0000   0.0000   0.0000   0.2335
  -3.100  -0.3344   0.00612   0.00162  -0.0037  0.9094  0.3176  -1.0850   0.0000   0.0000   0.0000   0.2337
  -3.000  -0.3237   0.00608   0.00158  -0.0036  0.9031  0.3258  -1.0505   0.0000   0.0000   0.0000   0.2339
  -2.900  -0.3133   0.00601   0.00153  -0.0033  0.8965  0.3376  -1.0176   0.0000   0.0000   0.0000   0.2343
  -2.800  -0.3026   0.00595   0.00149  -0.0032  0.8909  0.3491  -0.9873   0.0000   0.0000   0.0000   0.2344
  -2.700  -0.2918   0.00589   0.00145  -0.0031  0.8848  0.3595  -0.9569   0.0000   0.0000   0.0000   0.2344
  -2.600  -0.2812   0.00582   0.00142  -0.0029  0.8776  0.3710  -0.9272   0.0000   0.0000   0.0000   0.2346
  -2.500  -0.2705   0.00580   0.00138  -0.0028  0.8700  0.3791  -0.8974   0.0000   0.0000   0.0000   0.2348
  -2.400  -0.2599   0.00573   0.00135  -0.0026  0.8634  0.3913  -0.8681   0.0000   0.0000   0.0000   0.2350
  -2.300  -0.2490   0.00568   0.00132  -0.0025  0.8563  0.4026  -0.8417   0.0000   0.0000   0.0000   0.2350
  -2.200  -0.2383   0.00564   0.00129  -0.0024  0.8482  0.4130  -0.8157   0.0000   0.0000   0.0000   0.2352
  -2.000  -0.2167   0.00558   0.00123  -0.0021  0.8328  0.4327  -0.7640   0.0000   0.0000   0.0000   0.2353
  -1.900  -0.2060   0.00552   0.00121  -0.0020  0.8242  0.4449  -0.7402   0.0000   0.0000   0.0000   0.2355
  -1.800  -0.1954   0.00550   0.00118  -0.0018  0.8151  0.4560  -0.7177   0.0000   0.0000   0.0000   0.2359
  -1.700  -0.1845   0.00547   0.00116  -0.0018  0.8076  0.4661  -0.6950   0.0000   0.0000   0.0000   0.2358
  -1.600  -0.1737   0.00543   0.00114  -0.0016  0.7987  0.4771  -0.6726   0.0000   0.0000   0.0000   0.2359
  -1.500  -0.1629   0.00543   0.00111  -0.0015  0.7889  0.4861  -0.6518   0.0000   0.0000   0.0000   0.2361
  -1.400  -0.1521   0.00538   0.00110  -0.0014  0.7806  0.4980  -0.6323   0.0000   0.0000   0.0000   0.2362
  -1.300  -0.1412   0.00536   0.00108  -0.0013  0.7715  0.5092  -0.6126   0.0000   0.0000   0.0000   0.2361
  -1.200  -0.1304   0.00535   0.00106  -0.0012  0.7615  0.5186  -0.5932   0.0000   0.0000   0.0000   0.2364
  -1.100  -0.1196   0.00532   0.00105  -0.0011  0.7529  0.5297  -0.5757   0.0000   0.0000   0.0000   0.2365
  -1.000  -0.1086   0.00531   0.00104  -0.0010  0.7430  0.5392  -0.5585   0.0000   0.0000   0.0000   0.2363
  -0.900  -0.0980   0.00530   0.00102  -0.0008  0.7324  0.5504  -0.5418   0.0000   0.0000   0.0000   0.2369
  -0.800  -0.0870   0.00527   0.00101  -0.0008  0.7240  0.5617  -0.5249   0.0000   0.0000   0.0000   0.2366
  -0.700  -0.0760   0.00527   0.00100  -0.0007  0.7140  0.5706  -0.5099   0.0000   0.0000   0.0000   0.2363
  -0.600  -0.0654   0.00526   0.00099  -0.0005  0.7033  0.5817  -0.4953   0.0000   0.0000   0.0000   0.2373
  -0.500  -0.0543   0.00525   0.00099  -0.0005  0.6943  0.5918  -0.4804   0.0000   0.0000   0.0000   0.2365
  -0.400  -0.0435   0.00525   0.00098  -0.0004  0.6835  0.6022  -0.4661   0.0000   0.0000   0.0000   0.2369
  -0.300  -0.0328   0.00524   0.00098  -0.0003  0.6738  0.6135  -0.4532   0.0000   0.0000   0.0000   0.2375
  -0.200  -0.0216   0.00524   0.00097  -0.0002  0.6644  0.6221  -0.4400   0.0000   0.0000   0.0000   0.2351
  -0.100  -0.0110   0.00524   0.00097  -0.0001  0.6531  0.6331  -0.4273   0.0000   0.0000   0.0000   0.2387
   0.000   0.0000   0.00523   0.00097  -0.0000  0.6436  0.6436  -0.4146   0.0000   0.0000   0.0000   0.4384
   0.100   0.0110   0.00524   0.00097   0.0001  0.6331  0.6531  -0.4273   0.0000   0.0000   0.0000   0.2387
   0.200   0.0216   0.00524   0.00097   0.0002  0.6221  0.6644  -0.4400   0.0000   0.0000   0.0000   0.2351
   0.300   0.0328   0.00524   0.00098   0.0003  0.6135  0.6738  -0.4532   0.0000   0.0000   0.0000   0.2375
   0.400   0.0435   0.00525   0.00098   0.0004  0.6022  0.6835  -0.4661   0.0000   0.0000   0.0000   0.2369
   0.500   0.0543   0.00525   0.00099   0.0005  0.5918  0.6943  -0.4804   0.0000   0.0000   0.0000   0.2365
   0.600   0.0654   0.00526   0.00099   0.0005  0.5817  0.7033  -0.4953   0.0000   0.0000   0.0000   0.2373
   0.700   0.0760   0.00527   0.00100   0.0007  0.5706  0.7140  -0.5099   0.0000   0.0000   0.0000   0.2363
   0.800   0.0870   0.00527   0.00101   0.0008  0.5617  0.7240  -0.5249   0.0000   0.0000   0.0000   0.2366
   0.900   0.0980   0.00530   0.00102   0.0008  0.5504  0.7324  -0.5418   0.0000   0.0000   0.0000   0.2369
   1.000   0.1086   0.00531   0.00104   0.0010  0.5392  0.7430  -0.5585   0.0000   0.0000   0.0000   0.2363
   1.100   0.1196   0.00532   0.00105   0.0011  0.5297  0.7529  -0.5757   0.0000   0.0000   0.0000   0.2365
   1.200   0.1304   0.00535   0.00106   0.0012  0.5186  0.7615  -0.5932   0.0000   0.0000   0.0000   0.2364
   1.300   0.1412   0.00536   0.00108   0.0013  0.5092  0.7715  -0.6126   0.0000   0.0000   0.0000   0.2362
   1.400   0.1521   0.00538   0.00110   0.0014  0.4980  0.7806  -0.6323   0.0000   0.0000   0.0000   0.2362
   1.500   0.1629   0.00543   0.00111   0.0015  0.4861  0.7889  -0.6518   0.0000   0.0000   0.0000   0.2361
   1.600   0.1737   0.00543   0.00114   0.0016  0.4771  0.7987  -0.6726   0.0000   0.0000   0.0000   0.2359
   1.700   0.1845   0.00547   0.00116   0.0017  0.4661  0.8076  -0.6950   0.0000   0.0000   0.0000   0.2358
   1.800   0.1954   0.00550   0.00118   0.0018  0.4560  0.8151  -0.7177   0.0000   0.0000   0.0000   0.2359
   1.900   0.2060   0.00552   0.00121   0.0020  0.4449  0.8242  -0.7402   0.0000   0.0000   0.0000   0.2355
   2.000   0.2167   0.00558   0.00123   0.0021  0.4327  0.8328  -0.7640   0.0000   0.0000   0.0000   0.2354
   2.200   0.2383   0.00564   0.00129   0.0024  0.4130  0.8482  -0.8157   0.0000   0.0000   0.0000   0.2352
   2.300   0.2490   0.00568   0.00132   0.0025  0.4026  0.8563  -0.8418   0.0000   0.0000   0.0000   0.2350
   2.400   0.2599   0.00573   0.00135   0.0026  0.3913  0.8634  -0.8682   0.0000   0.0000   0.0000   0.2350
   2.500   0.2705   0.00580   0.00138   0.0028  0.3791  0.8700  -0.8974   0.0000   0.0000   0.0000   0.2349
   2.600   0.2812   0.00582   0.00142   0.0029  0.3710  0.8776  -0.9272   0.0000   0.0000   0.0000   0.2346
   2.700   0.2918   0.00589   0.00145   0.0031  0.3595  0.8848  -0.9569   0.0000   0.0000   0.0000   0.2344
   2.800   0.3026   0.00595   0.00149   0.0032  0.3491  0.8909  -0.9873   0.0000   0.0000   0.0000   0.2344
   2.900   0.3133   0.00601   0.00153   0.0033  0.3376  0.8965  -1.0177   0.0000   0.0000   0.0000   0.2343
   3.000   0.3237   0.00608   0.00158   0.0036  0.3258  0.9031  -1.0505   0.0000   0.0000   0.0000   0.2339
   3.100   0.3344   0.00612   0.00162   0.0037  0.3176  0.9094  -1.0850   0.0000   0.0000   0.0000   0.2337
   3.200   0.3449   0.00621   0.00166   0.0039  0.3061  0.9151  -1.1194   0.0000   0.0000   0.0000   0.2335
   3.300   0.3557   0.00628   0.00170   0.0040  0.2962  0.9197  -1.1545   0.0000   0.0000   0.0000   0.2335
   3.400   0.3662   0.00635   0.00175   0.0042  0.2849  0.9249  -1.1895   0.0000   0.0000   0.0000   0.2333
   3.500   0.3767   0.00644   0.00180   0.0044  0.2730  0.9302  -1.2245   0.0000   0.0000   0.0000   0.2331
   3.600   0.3873   0.00650   0.00185   0.0045  0.2644  0.9353  -1.2631   0.0000   0.0000   0.0000   0.2329
   3.700   0.3977   0.00660   0.00190   0.0047  0.2534  0.9401  -1.3026   0.0000   0.0000   0.0000   0.2327
   3.800   0.4082   0.00667   0.00194   0.0049  0.2448  0.9442  -1.3429   0.0000   0.0000   0.0000   0.2325
   3.900   0.4188   0.00676   0.00199   0.0050  0.2345  0.9479  -1.3837   0.0000   0.0000   0.0000   0.2325
   4.000   0.4298   0.00687   0.00206   0.0051  0.2222  0.9517  -1.4253   0.0000   0.0000   0.0000   0.2326
   4.100   0.4411   0.00695   0.00212   0.0051  0.2134  0.9554  -1.4680   0.0000   0.0000   0.0000   0.2328
   4.200   0.4519   0.00707   0.00219   0.0052  0.2018  0.9591  -1.5101   0.0000   0.0000   0.0000   0.2329
   4.300   0.4629   0.00714   0.00224   0.0053  0.1944  0.9626  -1.5528   0.0000   0.0000   0.0000   0.2329
   4.400   0.4731   0.00723   0.00230   0.0055  0.1865  0.9662  -1.5970   0.0000   0.0000   0.0000   0.2326
   4.500   0.4825   0.00735   0.00236   0.0059  0.1755  0.9695  -1.6419   0.0000   0.0000   0.0000   0.2320
   4.600   0.4952   0.00743   0.00242   0.0055  0.1681  0.9717  -1.6944   0.0000   0.0000   0.0000   0.2329
   4.700   0.5080   0.00756   0.00250   0.0051  0.1580  0.9735  -1.7477   0.0000   0.0000   0.0000   0.2339
   4.800   0.5209   0.00768   0.00257   0.0047  0.1477  0.9753  -1.8015   0.0000   0.0000   0.0000   0.2349
   4.900   0.5339   0.00777   0.00263   0.0043  0.1414  0.9770  -1.8564   0.0000   0.0000   0.0000   0.2358
   5.000   0.5463   0.00790   0.00272   0.0040  0.1329  0.9788  -1.9103   0.0000   0.0000   0.0000   0.2365
   5.100   0.5590   0.00801   0.00280   0.0037  0.1248  0.9806  -1.9650   0.0000   0.0000   0.0000   0.2372
   5.200   0.5718   0.00810   0.00287   0.0033  0.1200  0.9822  -2.0207   0.0000   0.0000   0.0000   0.2380
   5.300   0.5843   0.00822   0.00295   0.0030  0.1129  0.9838  -2.0763   0.0000   0.0000   0.0000   0.2386
   5.400   0.5969   0.00836   0.00304   0.0026  0.1037  0.9853  -2.1321   0.0000   0.0000   0.0000   0.2392
   5.500   0.6096   0.00844   0.00311   0.0023  0.1001  0.9867  -2.1950   0.0000   0.0000   0.0000   0.2398
   5.600   0.6218   0.00856   0.00319   0.0020  0.0948  0.9881  -2.2575   0.0000   0.0000   0.0000   0.2402
   5.700   0.6330   0.00870   0.00328   0.0020  0.0883  0.9895  -2.3180   0.0000   0.0000   0.0000   0.2403
   5.800   0.6471   0.00880   0.00337   0.0013  0.0830  0.9900  -2.3864   0.0000   0.0000   0.0000   0.2413
   5.900   0.6612   0.00889   0.00345   0.0006  0.0802  0.9904  -2.4563   0.0000   0.0000   0.0000   0.2423
   6.000   0.6752   0.00901   0.00353  -0.0000  0.0762  0.9909  -2.5261   0.0000   0.0000   0.0000   0.2433
   6.100   0.6889   0.00915   0.00363  -0.0007  0.0711  0.9915  -2.5956   0.0000   0.0000   0.0000   0.2441
   6.200   0.7027   0.00926   0.00374  -0.0013  0.0661  0.9920  -2.6657   0.0000   0.0000   0.0000   0.2449
   6.300   0.7167   0.00934   0.00381  -0.0019  0.0646  0.9926  -2.7376   0.0000   0.0000   0.0000   0.2457
   6.400   0.7304   0.00945   0.00390  -0.0025  0.0621  0.9932  -2.8094   0.0000   0.0000   0.0000   0.2464
   6.500   0.7439   0.00958   0.00400  -0.0031  0.0589  0.9939  -2.8810   0.0000   0.0000   0.0000   0.2470
   6.600   0.7572   0.00973   0.00411  -0.0036  0.0545  0.9946  -2.9522   0.0000   0.0000   0.0000   0.2475
   6.700   0.7707   0.00984   0.00422  -0.0042  0.0516  0.9953  -3.0242   0.0000   0.0000   0.0000   0.2481
   6.800   0.7843   0.00992   0.00430  -0.0047  0.0506  0.9959  -3.0984   0.0000   0.0000   0.0000   0.2486
   6.900   0.7977   0.01002   0.00439  -0.0053  0.0491  0.9966  -3.1762   0.0000   0.0000   0.0000   0.2491
   7.000   0.8110   0.01013   0.00449  -0.0058  0.0473  0.9973  -3.2585   0.0000   0.0000   0.0000   0.2495
   7.100   0.8242   0.01027   0.00460  -0.0063  0.0452  0.9979  -3.3408   0.0000   0.0000   0.0000   0.2499
   7.200   0.8372   0.01042   0.00473  -0.0068  0.0424  0.9985  -3.4225   0.0000   0.0000   0.0000   0.2503
   7.300   0.8503   0.01058   0.00489  -0.0072  0.0402  0.9990  -3.5039   0.0000   0.0000   0.0000   0.2506
   7.400   0.8637   0.01065   0.00497  -0.0078  0.0397  0.9995  -3.5903   0.0000   0.0000   0.0000   0.2510
   7.500   0.8770   0.01074   0.00506  -0.0083  0.0390  0.9999  -3.6768   0.0000   0.0000   0.0000   0.2514
   7.600   0.8868   0.01083   0.00516  -0.0080  0.0382  1.0000  -3.7513   0.0000   0.0000   0.0000   0.2509
   7.700   0.8953   0.01092   0.00525  -0.0075  0.0374  1.0000  -3.8215   0.0000   0.0000   0.0000   0.2501
   7.800   0.9037   0.01103   0.00535  -0.0070  0.0364  1.0000  -3.8918   0.0000   0.0000   0.0000   0.2494
   7.900   0.9119   0.01115   0.00545  -0.0065  0.0353  1.0000  -3.9620   0.0000   0.0000   0.0000   0.2486
   8.000   0.9201   0.01128   0.00557  -0.0059  0.0340  1.0000  -4.0317   0.0000   0.0000   0.0000   0.2478
   8.100   0.9280   0.01144   0.00572  -0.0053  0.0324  1.0000  -4.0991   0.0000   0.0000   0.0000   0.2470
   8.200   0.9358   0.01161   0.00590  -0.0047  0.0310  1.0000  -4.1656   0.0000   0.0000   0.0000   0.2462
   8.300   0.9446   0.01169   0.00598  -0.0042  0.0308  1.0000  -4.2408   0.0000   0.0000   0.0000   0.2455
   8.400   0.9534   0.01176   0.00606  -0.0037  0.0305  1.0000  -4.3160   0.0000   0.0000   0.0000   0.2449
   8.500   0.9621   0.01185   0.00616  -0.0033  0.0302  1.0000  -4.3912   0.0000   0.0000   0.0000   0.2442
   8.600   0.9708   0.01195   0.00627  -0.0028  0.0297  1.0000  -4.4665   0.0000   0.0000   0.0000   0.2436
   8.700   0.9794   0.01205   0.00638  -0.0023  0.0292  1.0000  -4.5421   0.0000   0.0000   0.0000   0.2430
   8.800   0.9880   0.01216   0.00649  -0.0019  0.0287  1.0000  -4.6178   0.0000   0.0000   0.0000   0.2424
   8.900   0.9966   0.01228   0.00661  -0.0014  0.0281  1.0000  -4.6938   0.0000   0.0000   0.0000   0.2418
   9.000   1.0051   0.01241   0.00673  -0.0009  0.0275  1.0000  -4.7699   0.0000   0.0000   0.0000   0.2411
   9.100   1.0136   0.01254   0.00686  -0.0004  0.0269  1.0000  -4.8461   0.0000   0.0000   0.0000   0.2405
   9.200   1.0220   0.01270   0.00701   0.0001  0.0262  1.0000  -4.9216   0.0000   0.0000   0.0000   0.2399
   9.300   1.0301   0.01288   0.00719   0.0006  0.0253  1.0000  -4.9949   0.0000   0.0000   0.0000   0.2393
   9.400   1.0378   0.01311   0.00744   0.0012  0.0244  1.0000  -5.0635   0.0000   0.0000   0.0000   0.2386
   9.500   1.0456   0.01333   0.00768   0.0019  0.0238  1.0000  -5.1332   0.0000   0.0000   0.0000   0.2379
   9.600   1.0546   0.01343   0.00779   0.0022  0.0236  1.0000  -5.2149   0.0000   0.0000   0.0000   0.2374
   9.700   1.0637   0.01353   0.00790   0.0026  0.0235  1.0000  -5.2969   0.0000   0.0000   0.0000   0.2370
   9.800   1.0728   0.01364   0.00802   0.0030  0.0233  1.0000  -5.3827   0.0000   0.0000   0.0000   0.2365
   9.900   1.0818   0.01376   0.00815   0.0033  0.0231  1.0000  -5.4738   0.0000   0.0000   0.0000   0.2361
  10.000   1.0909   0.01388   0.00829   0.0037  0.0228  1.0000  -5.5654   0.0000   0.0000   0.0000   0.2357
  10.100   1.1000   0.01401   0.00843   0.0040  0.0225  1.0000  -5.6574   0.0000   0.0000   0.0000   0.2352
  10.200   1.1090   0.01415   0.00858   0.0044  0.0222  1.0000  -5.7501   0.0000   0.0000   0.0000   0.2348
  10.300   1.1181   0.01429   0.00873   0.0047  0.0219  1.0000  -5.8433   0.0000   0.0000   0.0000   0.2344
  10.400   1.1272   0.01443   0.00888   0.0050  0.0216  1.0000  -5.9371   0.0000   0.0000   0.0000   0.2340
  10.500   1.1362   0.01459   0.00904   0.0053  0.0213  1.0000  -6.0311   0.0000   0.0000   0.0000   0.2337
  10.600   1.1452   0.01475   0.00920   0.0057  0.0210  1.0000  -6.1255   0.0000   0.0000   0.0000   0.2333
  10.700   1.1541   0.01491   0.00937   0.0060  0.0206  1.0000  -6.2201   0.0000   0.0000   0.0000   0.2329
  10.800   1.1629   0.01509   0.00955   0.0063  0.0202  1.0000  -6.3149   0.0000   0.0000   0.0000   0.2325
  10.900   1.1716   0.01528   0.00974   0.0067  0.0198  1.0000  -6.4087   0.0000   0.0000   0.0000   0.2321
  11.000   1.1799   0.01551   0.00998   0.0071  0.0193  1.0000  -6.4997   0.0000   0.0000   0.0000   0.2317
  11.100   1.1876   0.01581   0.01029   0.0076  0.0187  1.0000  -6.5849   0.0000   0.0000   0.0000   0.2311
  11.200   1.1940   0.01622   0.01075   0.0083  0.0181  1.0000  -6.6592   0.0000   0.0000   0.0000   0.2305
  11.300   1.2021   0.01646   0.01102   0.0087  0.0179  1.0000  -6.7500   0.0000   0.0000   0.0000   0.2300
  11.400   1.2113   0.01659   0.01116   0.0090  0.0178  1.0000  -6.8516   0.0000   0.0000   0.0000   0.2297
  11.500   1.2205   0.01673   0.01131   0.0092  0.0177  1.0000  -6.9525   0.0000   0.0000   0.0000   0.2294
  11.600   1.2294   0.01689   0.01149   0.0095  0.0176  1.0000  -7.0528   0.0000   0.0000   0.0000   0.2291
  11.700   1.2383   0.01705   0.01167   0.0098  0.0175  1.0000  -7.1528   0.0000   0.0000   0.0000   0.2287
  11.800   1.2471   0.01722   0.01186   0.0101  0.0174  1.0000  -7.2527   0.0000   0.0000   0.0000   0.2284
  11.900   1.2557   0.01740   0.01205   0.0105  0.0172  1.0000  -7.3524   0.0000   0.0000   0.0000   0.2280
  12.000   1.2643   0.01759   0.01225   0.0108  0.0171  1.0000  -7.4519   0.0000   0.0000   0.0000   0.2277
  12.100   1.2727   0.01778   0.01246   0.0111  0.0169  1.0000  -7.5513   0.0000   0.0000   0.0000   0.2273
  12.200   1.2811   0.01798   0.01267   0.0115  0.0167  1.0000  -7.6506   0.0000   0.0000   0.0000   0.2269
  12.300   1.2893   0.01818   0.01289   0.0119  0.0166  1.0000  -7.7499   0.0000   0.0000   0.0000   0.2266
  12.400   1.2975   0.01838   0.01312   0.0122  0.0164  1.0000  -7.8491   0.0000   0.0000   0.0000   0.2262
  12.500   1.3055   0.01860   0.01334   0.0126  0.0162  1.0000  -7.9483   0.0000   0.0000   0.0000   0.2258
  12.600   1.3135   0.01881   0.01357   0.0130  0.0161  1.0000  -8.0477   0.0000   0.0000   0.0000   0.2254
  12.700   1.3214   0.01903   0.01381   0.0134  0.0159  1.0000  -8.1470   0.0000   0.0000   0.0000   0.2250
  12.800   1.3291   0.01925   0.01404   0.0138  0.0157  1.0000  -8.2463   0.0000   0.0000   0.0000   0.2246
  12.900   1.3367   0.01948   0.01429   0.0143  0.0156  1.0000  -8.3451   0.0000   0.0000   0.0000   0.2241
  13.000   1.3442   0.01972   0.01454   0.0147  0.0154  1.0000  -8.4434   0.0000   0.0000   0.0000   0.2237
  13.100   1.3514   0.01996   0.01480   0.0152  0.0152  1.0000  -8.5410   0.0000   0.0000   0.0000   0.2233
  13.200   1.3585   0.02022   0.01507   0.0157  0.0151  1.0000  -8.6376   0.0000   0.0000   0.0000   0.2228
  13.300   1.3652   0.02049   0.01535   0.0162  0.0149  1.0000  -8.7327   0.0000   0.0000   0.0000   0.2223
  13.400   1.3717   0.02078   0.01567   0.0168  0.0147  1.0000  -8.8256   0.0000   0.0000   0.0000   0.2218
  13.500   1.3776   0.02109   0.01600   0.0174  0.0145  1.0000  -8.9150   0.0000   0.0000   0.0000   0.2212
  13.600   1.3823   0.02143   0.01636   0.0182  0.0143  1.0000  -8.9966   0.0000   0.0000   0.0000   0.2205
  13.700   1.3858   0.02181   0.01677   0.0192  0.0141  1.0000  -9.0701   0.0000   0.0000   0.0000   0.2197
  13.800   1.3882   0.02224   0.01724   0.0203  0.0139  1.0000  -9.1352   0.0000   0.0000   0.0000   0.2187
  13.900   1.3894   0.02275   0.01779   0.0215  0.0137  1.0000  -9.1914   0.0000   0.0000   0.0000   0.2177
  14.000   1.3892   0.02337   0.01846   0.0228  0.0135  1.0000  -9.2364   0.0000   0.0000   0.0000   0.2166
  14.100   1.3873   0.02412   0.01928   0.0242  0.0133  1.0000  -9.2674   0.0000   0.0000   0.0000   0.2154
  14.200   1.3858   0.02486   0.02009   0.0254  0.0131  1.0000  -9.3014   0.0000   0.0000   0.0000   0.2143
  14.300   1.3906   0.02520   0.02045   0.0260  0.0131  1.0000  -9.3881   0.0000   0.0000   0.0000   0.2138
  14.400   1.3953   0.02557   0.02084   0.0265  0.0131  1.0000  -9.4734   0.0000   0.0000   0.0000   0.2133
  14.500   1.3999   0.02595   0.02125   0.0271  0.0130  1.0000  -9.5581   0.0000   0.0000   0.0000   0.2128
  14.600   1.4042   0.02635   0.02167   0.0276  0.0130  1.0000  -9.6412   0.0000   0.0000   0.0000   0.2123
  14.700   1.4082   0.02678   0.02213   0.0281  0.0130  1.0000  -9.7223   0.0000   0.0000   0.0000   0.2118
  14.800   1.4121   0.02723   0.02261   0.0286  0.0129  1.0000  -9.8031   0.0000   0.0000   0.0000   0.2113
  14.900   1.4158   0.02771   0.02311   0.0290  0.0129  1.0000  -9.8822   0.0000   0.0000   0.0000   0.2108
  15.000   1.4193   0.02822   0.02366   0.0295  0.0129  1.0000  -9.9595   0.0000   0.0000   0.0000   0.2104


