xflr5 v6.61

 Calculated polar for: NACA 0012

 1 1 Reynolds number fixed          Mach number fixed         

 xtrf =   1.000 (top)        1.000 (bottom)
 Mach =   0.000     Re =     1.600 e 6     Ncrit =   9.000

  alpha     CL        CD       CDp       Cm    Top Xtr Bot Xtr   Cpmin    Chinge    XCp    
 ------- -------- --------- --------- -------- ------- ------- -------- --------- ---------
 -15.000  -1.4685   0.02443   0.01979  -0.0260  1.0000  0.0122  -10.3718   0.0000   0.0000   0.0000   0.2135
 -14.900  -1.4643   0.02405   0.01939  -0.0254  1.0000  0.0122  -10.2871   0.0000   0.0000   0.0000   0.2141
 -14.800  -1.4600   0.02369   0.01900  -0.0247  1.0000  0.0123  -10.2011   0.0000   0.0000   0.0000   0.2146
 -14.700  -1.4557   0.02334   0.01863  -0.0240  1.0000  0.0124  -10.1152   0.0000   0.0000   0.0000   0.2153
 -14.600  -1.4512   0.02301   0.01827  -0.0233  1.0000  0.0125  -10.0282   0.0000   0.0000   0.0000   0.2159
 -14.500  -1.4464   0.02269   0.01794  -0.0226  1.0000  0.0125  -9.9391   0.0000   0.0000   0.0000   0.2165
 -14.400  -1.4415   0.02239   0.01761  -0.0219  1.0000  0.0126  -9.8497   0.0000   0.0000   0.0000   0.2171
 -14.300  -1.4365   0.02211   0.01731  -0.0212  1.0000  0.0127  -9.7599   0.0000   0.0000   0.0000   0.2177
 -14.200  -1.4314   0.02184   0.01702  -0.0205  1.0000  0.0127  -9.6689   0.0000   0.0000   0.0000   0.2183
 -14.100  -1.4261   0.02158   0.01674  -0.0197  1.0000  0.0128  -9.5771   0.0000   0.0000   0.0000   0.2190
 -14.000  -1.4206   0.02134   0.01648  -0.0190  1.0000  0.0129  -9.4844   0.0000   0.0000   0.0000   0.2196
 -13.900  -1.4148   0.02111   0.01623  -0.0183  1.0000  0.0129  -9.3903   0.0000   0.0000   0.0000   0.2202
 -13.800  -1.4087   0.02089   0.01599  -0.0176  1.0000  0.0130  -9.2944   0.0000   0.0000   0.0000   0.2208
 -13.700  -1.4020   0.02067   0.01575  -0.0171  1.0000  0.0130  -9.1951   0.0000   0.0000   0.0000   0.2213
 -13.600  -1.3948   0.02046   0.01553  -0.0166  1.0000  0.0130  -9.0930   0.0000   0.0000   0.0000   0.2218
 -13.500  -1.3873   0.02025   0.01530  -0.0162  1.0000  0.0131  -8.9901   0.0000   0.0000   0.0000   0.2222
 -13.400  -1.3797   0.02005   0.01509  -0.0158  1.0000  0.0131  -8.8866   0.0000   0.0000   0.0000   0.2226
 -13.300  -1.3720   0.01986   0.01487  -0.0154  1.0000  0.0131  -8.7828   0.0000   0.0000   0.0000   0.2230
 -13.200  -1.3684   0.01933   0.01428  -0.0144  1.0000  0.0134  -8.7180   0.0000   0.0000   0.0000   0.2238
 -13.100  -1.3636   0.01888   0.01379  -0.0136  1.0000  0.0137  -8.6430   0.0000   0.0000   0.0000   0.2245
 -13.000  -1.3576   0.01851   0.01338  -0.0130  1.0000  0.0140  -8.5593   0.0000   0.0000   0.0000   0.2251
 -12.900  -1.3510   0.01819   0.01304  -0.0124  1.0000  0.0142  -8.4696   0.0000   0.0000   0.0000   0.2256
 -12.800  -1.3438   0.01791   0.01273  -0.0119  1.0000  0.0145  -8.3755   0.0000   0.0000   0.0000   0.2261
 -12.700  -1.3361   0.01766   0.01247  -0.0114  1.0000  0.0148  -8.2780   0.0000   0.0000   0.0000   0.2266
 -12.600  -1.3282   0.01743   0.01222  -0.0110  1.0000  0.0150  -8.1783   0.0000   0.0000   0.0000   0.2270
 -12.500  -1.3201   0.01721   0.01200  -0.0106  1.0000  0.0152  -8.0773   0.0000   0.0000   0.0000   0.2274
 -12.400  -1.3118   0.01701   0.01179  -0.0103  1.0000  0.0154  -7.9755   0.0000   0.0000   0.0000   0.2278
 -12.300  -1.3034   0.01681   0.01158  -0.0099  1.0000  0.0156  -7.8733   0.0000   0.0000   0.0000   0.2281
 -12.200  -1.2948   0.01662   0.01138  -0.0096  1.0000  0.0158  -7.7710   0.0000   0.0000   0.0000   0.2285
 -12.100  -1.2862   0.01643   0.01119  -0.0093  1.0000  0.0160  -7.6688   0.0000   0.0000   0.0000   0.2289
 -12.000  -1.2775   0.01625   0.01100  -0.0089  1.0000  0.0162  -7.5666   0.0000   0.0000   0.0000   0.2292
 -11.900  -1.2687   0.01608   0.01082  -0.0086  1.0000  0.0164  -7.4643   0.0000   0.0000   0.0000   0.2296
 -11.800  -1.2599   0.01591   0.01064  -0.0083  1.0000  0.0165  -7.3623   0.0000   0.0000   0.0000   0.2299
 -11.700  -1.2509   0.01574   0.01046  -0.0080  1.0000  0.0167  -7.2605   0.0000   0.0000   0.0000   0.2302
 -11.600  -1.2419   0.01558   0.01029  -0.0077  1.0000  0.0169  -7.1589   0.0000   0.0000   0.0000   0.2306
 -11.500  -1.2329   0.01543   0.01011  -0.0074  1.0000  0.0171  -7.0575   0.0000   0.0000   0.0000   0.2309
 -11.400  -1.2238   0.01528   0.00995  -0.0072  1.0000  0.0172  -6.9564   0.0000   0.0000   0.0000   0.2313
 -11.300  -1.2146   0.01513   0.00979  -0.0069  1.0000  0.0174  -6.8552   0.0000   0.0000   0.0000   0.2316
 -11.200  -1.2053   0.01499   0.00965  -0.0066  1.0000  0.0175  -6.7541   0.0000   0.0000   0.0000   0.2319
 -11.100  -1.1960   0.01487   0.00951  -0.0064  1.0000  0.0176  -6.6526   0.0000   0.0000   0.0000   0.2322
 -11.000  -1.1865   0.01475   0.00938  -0.0061  1.0000  0.0178  -6.5509   0.0000   0.0000   0.0000   0.2325
 -10.900  -1.1770   0.01464   0.00927  -0.0059  1.0000  0.0178  -6.4492   0.0000   0.0000   0.0000   0.2328
 -10.800  -1.1675   0.01453   0.00916  -0.0056  1.0000  0.0179  -6.3478   0.0000   0.0000   0.0000   0.2331
 -10.700  -1.1598   0.01424   0.00883  -0.0051  1.0000  0.0185  -6.2650   0.0000   0.0000   0.0000   0.2337
 -10.600  -1.1518   0.01398   0.00855  -0.0046  1.0000  0.0191  -6.1793   0.0000   0.0000   0.0000   0.2342
 -10.500  -1.1433   0.01377   0.00833  -0.0042  1.0000  0.0197  -6.0893   0.0000   0.0000   0.0000   0.2347
 -10.400  -1.1346   0.01360   0.00816  -0.0038  1.0000  0.0202  -5.9970   0.0000   0.0000   0.0000   0.2351
 -10.300  -1.1257   0.01344   0.00800  -0.0034  1.0000  0.0206  -5.9041   0.0000   0.0000   0.0000   0.2356
 -10.200  -1.1168   0.01330   0.00786  -0.0031  1.0000  0.0210  -5.8112   0.0000   0.0000   0.0000   0.2360
 -10.100  -1.1080   0.01316   0.00772  -0.0027  1.0000  0.0213  -5.7187   0.0000   0.0000   0.0000   0.2365
 -10.000  -1.0991   0.01302   0.00758  -0.0023  1.0000  0.0217  -5.6268   0.0000   0.0000   0.0000   0.2369
  -9.900  -1.0902   0.01290   0.00744  -0.0019  1.0000  0.0220  -5.5355   0.0000   0.0000   0.0000   0.2374
  -9.800  -1.0814   0.01278   0.00732  -0.0015  1.0000  0.0224  -5.4446   0.0000   0.0000   0.0000   0.2379
  -9.700  -1.0725   0.01266   0.00720  -0.0011  1.0000  0.0227  -5.3590   0.0000   0.0000   0.0000   0.2384
  -9.600  -1.0635   0.01255   0.00708  -0.0007  1.0000  0.0229  -5.2772   0.0000   0.0000   0.0000   0.2389
  -9.500  -1.0546   0.01245   0.00697  -0.0003  1.0000  0.0232  -5.1956   0.0000   0.0000   0.0000   0.2394
  -9.400  -1.0456   0.01235   0.00687   0.0001  1.0000  0.0234  -5.1144   0.0000   0.0000   0.0000   0.2399
  -9.300  -1.0367   0.01226   0.00677   0.0005  1.0000  0.0236  -5.0334   0.0000   0.0000   0.0000   0.2404
  -9.200  -1.0277   0.01217   0.00667   0.0010  1.0000  0.0237  -4.9527   0.0000   0.0000   0.0000   0.2410
  -9.100  -1.0190   0.01207   0.00657   0.0014  1.0000  0.0239  -4.8739   0.0000   0.0000   0.0000   0.2415
  -9.000  -1.0113   0.01187   0.00635   0.0021  1.0000  0.0249  -4.8055   0.0000   0.0000   0.0000   0.2423
  -8.900  -1.0033   0.01171   0.00618   0.0026  1.0000  0.0259  -4.7337   0.0000   0.0000   0.0000   0.2430
  -8.800  -0.9950   0.01157   0.00605   0.0032  1.0000  0.0267  -4.6596   0.0000   0.0000   0.0000   0.2437
  -8.700  -0.9867   0.01144   0.00593   0.0037  1.0000  0.0274  -4.5849   0.0000   0.0000   0.0000   0.2444
  -8.600  -0.9783   0.01133   0.00582   0.0043  1.0000  0.0281  -4.5101   0.0000   0.0000   0.0000   0.2451
  -8.500  -0.9699   0.01122   0.00572   0.0048  1.0000  0.0287  -4.4355   0.0000   0.0000   0.0000   0.2458
  -8.400  -0.9615   0.01112   0.00561   0.0053  1.0000  0.0293  -4.3611   0.0000   0.0000   0.0000   0.2465
  -8.300  -0.9530   0.01103   0.00552   0.0058  1.0000  0.0298  -4.2870   0.0000   0.0000   0.0000   0.2472
  -8.200  -0.9444   0.01094   0.00543   0.0063  1.0000  0.0302  -4.2129   0.0000   0.0000   0.0000   0.2478
  -8.100  -0.9357   0.01087   0.00535   0.0068  1.0000  0.0306  -4.1388   0.0000   0.0000   0.0000   0.2485
  -8.000  -0.9271   0.01080   0.00527   0.0073  1.0000  0.0309  -4.0647   0.0000   0.0000   0.0000   0.2492
  -7.900  -0.9145   0.01071   0.00518   0.0069  0.9997  0.0313  -3.9774   0.0000   0.0000   0.0000   0.2491
  -7.800  -0.9019   0.01053   0.00501   0.0065  0.9993  0.0335  -3.8942   0.0000   0.0000   0.0000   0.2488
  -7.700  -0.8891   0.01038   0.00488   0.0061  0.9989  0.0353  -3.8089   0.0000   0.0000   0.0000   0.2486
  -7.600  -0.8762   0.01025   0.00477   0.0057  0.9984  0.0367  -3.7231   0.0000   0.0000   0.0000   0.2483
  -7.500  -0.8632   0.01014   0.00467   0.0052  0.9978  0.0379  -3.6374   0.0000   0.0000   0.0000   0.2479
  -7.400  -0.8501   0.01004   0.00457   0.0047  0.9973  0.0389  -3.5520   0.0000   0.0000   0.0000   0.2476
  -7.300  -0.8369   0.00995   0.00449   0.0042  0.9967  0.0396  -3.4668   0.0000   0.0000   0.0000   0.2472
  -7.200  -0.8235   0.00988   0.00440   0.0037  0.9961  0.0401  -3.3817   0.0000   0.0000   0.0000   0.2467
  -7.100  -0.8104   0.00976   0.00429   0.0033  0.9955  0.0420  -3.2996   0.0000   0.0000   0.0000   0.2463
  -7.000  -0.7973   0.00962   0.00417   0.0028  0.9949  0.0449  -3.2186   0.0000   0.0000   0.0000   0.2459
  -6.900  -0.7841   0.00949   0.00407   0.0023  0.9942  0.0472  -3.1372   0.0000   0.0000   0.0000   0.2454
  -6.800  -0.7708   0.00938   0.00398   0.0018  0.9936  0.0491  -3.0637   0.0000   0.0000   0.0000   0.2448
  -6.700  -0.7573   0.00929   0.00389   0.0012  0.9930  0.0506  -2.9902   0.0000   0.0000   0.0000   0.2443
  -6.600  -0.7437   0.00921   0.00382   0.0007  0.9925  0.0516  -2.9167   0.0000   0.0000   0.0000   0.2436
  -6.500  -0.7301   0.00910   0.00372   0.0001  0.9920  0.0546  -2.8448   0.0000   0.0000   0.0000   0.2429
  -6.400  -0.7166   0.00897   0.00361  -0.0005  0.9914  0.0590  -2.7739   0.0000   0.0000   0.0000   0.2422
  -6.300  -0.7030   0.00884   0.00353  -0.0011  0.9910  0.0622  -2.7027   0.0000   0.0000   0.0000   0.2415
  -6.200  -0.6893   0.00875   0.00344  -0.0017  0.9905  0.0647  -2.6315   0.0000   0.0000   0.0000   0.2406
  -6.100  -0.6753   0.00867   0.00337  -0.0023  0.9901  0.0661  -2.5603   0.0000   0.0000   0.0000   0.2397
  -6.000  -0.6614   0.00856   0.00328  -0.0029  0.9897  0.0713  -2.4908   0.0000   0.0000   0.0000   0.2387
  -5.900  -0.6497   0.00843   0.00318  -0.0031  0.9885  0.0760  -2.4275   0.0000   0.0000   0.0000   0.2385
  -5.800  -0.6382   0.00832   0.00311  -0.0032  0.9870  0.0797  -2.3650   0.0000   0.0000   0.0000   0.2383
  -5.700  -0.6261   0.00824   0.00304  -0.0034  0.9854  0.0824  -2.3017   0.0000   0.0000   0.0000   0.2380
  -5.600  -0.6139   0.00816   0.00297  -0.0036  0.9838  0.0855  -2.2384   0.0000   0.0000   0.0000   0.2376
  -5.500  -0.6019   0.00804   0.00288  -0.0038  0.9819  0.0925  -2.1766   0.0000   0.0000   0.0000   0.2372
  -5.400  -0.5900   0.00792   0.00280  -0.0040  0.9801  0.0983  -2.1176   0.0000   0.0000   0.0000   0.2368
  -5.300  -0.5777   0.00783   0.00273  -0.0043  0.9782  0.1026  -2.0622   0.0000   0.0000   0.0000   0.2363
  -5.200  -0.5651   0.00774   0.00266  -0.0046  0.9763  0.1090  -2.0066   0.0000   0.0000   0.0000   0.2356
  -5.100  -0.5527   0.00760   0.00257  -0.0049  0.9744  0.1172  -1.9520   0.0000   0.0000   0.0000   0.2349
  -5.000  -0.5401   0.00751   0.00251  -0.0052  0.9724  0.1228  -1.8972   0.0000   0.0000   0.0000   0.2342
  -4.900  -0.5275   0.00744   0.00245  -0.0055  0.9703  0.1271  -1.8428   0.0000   0.0000   0.0000   0.2334
  -4.800  -0.5173   0.00733   0.00238  -0.0053  0.9675  0.1362  -1.7947   0.0000   0.0000   0.0000   0.2337
  -4.700  -0.5073   0.00723   0.00232  -0.0050  0.9641  0.1432  -1.7472   0.0000   0.0000   0.0000   0.2341
  -4.600  -0.4966   0.00716   0.00226  -0.0049  0.9605  0.1484  -1.6983   0.0000   0.0000   0.0000   0.2342
  -4.500  -0.4859   0.00705   0.00220  -0.0048  0.9569  0.1587  -1.6501   0.0000   0.0000   0.0000   0.2343
  -4.400  -0.4752   0.00694   0.00213  -0.0047  0.9531  0.1680  -1.6021   0.0000   0.0000   0.0000   0.2343
  -4.300  -0.4641   0.00688   0.00208  -0.0046  0.9492  0.1737  -1.5555   0.0000   0.0000   0.0000   0.2343
  -4.200  -0.4536   0.00677   0.00202  -0.0045  0.9452  0.1851  -1.5137   0.0000   0.0000   0.0000   0.2344
  -4.100  -0.4431   0.00669   0.00196  -0.0043  0.9415  0.1932  -1.4721   0.0000   0.0000   0.0000   0.2346
  -4.000  -0.4323   0.00663   0.00192  -0.0042  0.9371  0.1987  -1.4303   0.0000   0.0000   0.0000   0.2347
  -3.900  -0.4220   0.00652   0.00185  -0.0040  0.9321  0.2111  -1.3899   0.0000   0.0000   0.0000   0.2350
  -3.800  -0.4116   0.00645   0.00180  -0.0038  0.9268  0.2205  -1.3493   0.0000   0.0000   0.0000   0.2353
  -3.700  -0.4011   0.00638   0.00174  -0.0036  0.9211  0.2305  -1.3091   0.0000   0.0000   0.0000   0.2356
  -3.600  -0.3905   0.00628   0.00170  -0.0035  0.9168  0.2416  -1.2691   0.0000   0.0000   0.0000   0.2357
  -3.500  -0.3796   0.00623   0.00166  -0.0034  0.9116  0.2484  -1.2293   0.0000   0.0000   0.0000   0.2357
  -3.400  -0.3691   0.00615   0.00161  -0.0032  0.9056  0.2592  -1.1941   0.0000   0.0000   0.0000   0.2360
  -3.300  -0.3586   0.00609   0.00156  -0.0030  0.8990  0.2695  -1.1592   0.0000   0.0000   0.0000   0.2363
  -3.200  -0.3480   0.00604   0.00152  -0.0029  0.8926  0.2786  -1.1242   0.0000   0.0000   0.0000   0.2365
  -3.100  -0.3373   0.00595   0.00148  -0.0028  0.8872  0.2917  -1.0896   0.0000   0.0000   0.0000   0.2366
  -3.000  -0.3264   0.00590   0.00144  -0.0027  0.8805  0.2999  -1.0548   0.0000   0.0000   0.0000   0.2367
  -2.900  -0.3159   0.00585   0.00140  -0.0025  0.8730  0.3106  -1.0211   0.0000   0.0000   0.0000   0.2370
  -2.800  -0.3053   0.00580   0.00136  -0.0024  0.8657  0.3208  -0.9909   0.0000   0.0000   0.0000   0.2373
  -2.700  -0.2942   0.00575   0.00133  -0.0023  0.8594  0.3297  -0.9602   0.0000   0.0000   0.0000   0.2372
  -2.600  -0.2836   0.00568   0.00129  -0.0022  0.8516  0.3431  -0.9304   0.0000   0.0000   0.0000   0.2375
  -2.500  -0.2729   0.00566   0.00126  -0.0020  0.8432  0.3521  -0.9006   0.0000   0.0000   0.0000   0.2377
  -2.400  -0.2621   0.00561   0.00123  -0.0019  0.8361  0.3625  -0.8709   0.0000   0.0000   0.0000   0.2378
  -2.300  -0.2512   0.00556   0.00120  -0.0018  0.8283  0.3730  -0.8443   0.0000   0.0000   0.0000   0.2379
  -2.200  -0.2403   0.00554   0.00117  -0.0017  0.8192  0.3818  -0.8180   0.0000   0.0000   0.0000   0.2380
  -2.100  -0.2298   0.00549   0.00114  -0.0016  0.8107  0.3952  -0.7924   0.0000   0.0000   0.0000   0.2384
  -2.000  -0.2187   0.00545   0.00112  -0.0015  0.8031  0.4045  -0.7662   0.0000   0.0000   0.0000   0.2383
  -1.900  -0.2079   0.00543   0.00109  -0.0014  0.7938  0.4142  -0.7419   0.0000   0.0000   0.0000   0.2385
  -1.800  -0.1972   0.00540   0.00107  -0.0013  0.7843  0.4252  -0.7194   0.0000   0.0000   0.0000   0.2388
  -1.700  -0.1860   0.00538   0.00105  -0.0013  0.7763  0.4341  -0.6965   0.0000   0.0000   0.0000   0.2386
  -1.600  -0.1753   0.00533   0.00103  -0.0011  0.7665  0.4472  -0.6742   0.0000   0.0000   0.0000   0.2389
  -1.500  -0.1645   0.00533   0.00101  -0.0010  0.7569  0.4568  -0.6532   0.0000   0.0000   0.0000   0.2391
  -1.400  -0.1533   0.00530   0.00099  -0.0010  0.7488  0.4658  -0.6333   0.0000   0.0000   0.0000   0.2389
  -1.300  -0.1426   0.00527   0.00098  -0.0009  0.7384  0.4774  -0.6138   0.0000   0.0000   0.0000   0.2392
  -1.200  -0.1316   0.00528   0.00096  -0.0008  0.7287  0.4866  -0.5942   0.0000   0.0000   0.0000   0.2393
  -1.100  -0.1207   0.00523   0.00095  -0.0007  0.7198  0.4987  -0.5765   0.0000   0.0000   0.0000   0.2393
  -1.000  -0.1098   0.00523   0.00094  -0.0006  0.7092  0.5087  -0.5594   0.0000   0.0000   0.0000   0.2396
  -0.900  -0.0987   0.00523   0.00093  -0.0006  0.7002  0.5169  -0.5422   0.0000   0.0000   0.0000   0.2394
  -0.800  -0.0878   0.00519   0.00092  -0.0005  0.6906  0.5290  -0.5254   0.0000   0.0000   0.0000   0.2395
  -0.700  -0.0769   0.00521   0.00091  -0.0004  0.6792  0.5388  -0.5105   0.0000   0.0000   0.0000   0.2398
  -0.600  -0.0659   0.00518   0.00090  -0.0004  0.6706  0.5496  -0.4955   0.0000   0.0000   0.0000   0.2397
  -0.500  -0.0549   0.00517   0.00089  -0.0003  0.6606  0.5600  -0.4807   0.0000   0.0000   0.0000   0.2397
  -0.400  -0.0439   0.00520   0.00089  -0.0003  0.6495  0.5680  -0.4663   0.0000   0.0000   0.0000   0.2398
  -0.300  -0.0329   0.00516   0.00088  -0.0002  0.6411  0.5798  -0.4532   0.0000   0.0000   0.0000   0.2397
  -0.200  -0.0220   0.00516   0.00088  -0.0001  0.6299  0.5904  -0.4402   0.0000   0.0000   0.0000   0.2401
  -0.100  -0.0110   0.00517   0.00088  -0.0001  0.6198  0.5998  -0.4272   0.0000   0.0000   0.0000   0.2399
   0.000   0.0000   0.00515   0.00088  -0.0000  0.6107  0.6107  -0.4145   0.0000   0.0000   0.0000   0.4479
   0.100   0.0110   0.00517   0.00088   0.0001  0.5998  0.6198  -0.4272   0.0000   0.0000   0.0000   0.2399
   0.200   0.0220   0.00516   0.00088   0.0001  0.5904  0.6299  -0.4402   0.0000   0.0000   0.0000   0.2401
   0.300   0.0329   0.00516   0.00088   0.0002  0.5798  0.6411  -0.4532   0.0000   0.0000   0.0000   0.2397
   0.400   0.0439   0.00520   0.00089   0.0003  0.5680  0.6495  -0.4663   0.0000   0.0000   0.0000   0.2398
   0.500   0.0549   0.00517   0.00089   0.0003  0.5600  0.6606  -0.4807   0.0000   0.0000   0.0000   0.2397
   0.600   0.0659   0.00518   0.00090   0.0004  0.5496  0.6706  -0.4955   0.0000   0.0000   0.0000   0.2397
   0.700   0.0769   0.00521   0.00091   0.0004  0.5388  0.6792  -0.5105   0.0000   0.0000   0.0000   0.2398
   0.800   0.0878   0.00519   0.00092   0.0005  0.5290  0.6906  -0.5254   0.0000   0.0000   0.0000   0.2395
   0.900   0.0987   0.00523   0.00093   0.0006  0.5169  0.7002  -0.5422   0.0000   0.0000   0.0000   0.2394
   1.000   0.1098   0.00523   0.00094   0.0006  0.5087  0.7092  -0.5594   0.0000   0.0000   0.0000   0.2396
   1.100   0.1207   0.00523   0.00095   0.0007  0.4987  0.7198  -0.5765   0.0000   0.0000   0.0000   0.2393
   1.200   0.1316   0.00528   0.00096   0.0008  0.4866  0.7287  -0.5942   0.0000   0.0000   0.0000   0.2393
   1.300   0.1426   0.00527   0.00098   0.0009  0.4774  0.7384  -0.6138   0.0000   0.0000   0.0000   0.2392
   1.400   0.1533   0.00530   0.00099   0.0010  0.4658  0.7488  -0.6333   0.0000   0.0000   0.0000   0.2389
   1.500   0.1645   0.00533   0.00101   0.0010  0.4568  0.7569  -0.6532   0.0000   0.0000   0.0000   0.2391
   1.600   0.1754   0.00533   0.00103   0.0011  0.4472  0.7665  -0.6742   0.0000   0.0000   0.0000   0.2389
   1.700   0.1860   0.00538   0.00105   0.0013  0.4341  0.7763  -0.6965   0.0000   0.0000   0.0000   0.2386
   1.800   0.1972   0.00540   0.00107   0.0013  0.4252  0.7843  -0.7194   0.0000   0.0000   0.0000   0.2388
   1.900   0.2079   0.00543   0.00109   0.0014  0.4142  0.7938  -0.7419   0.0000   0.0000   0.0000   0.2385
   2.000   0.2187   0.00545   0.00112   0.0015  0.4045  0.8031  -0.7662   0.0000   0.0000   0.0000   0.2383
   2.100   0.2298   0.00549   0.00114   0.0016  0.3952  0.8107  -0.7924   0.0000   0.0000   0.0000   0.2384
   2.200   0.2404   0.00554   0.00117   0.0017  0.3818  0.8192  -0.8180   0.0000   0.0000   0.0000   0.2381
   2.300   0.2512   0.00556   0.00120   0.0018  0.3730  0.8283  -0.8443   0.0000   0.0000   0.0000   0.2379
   2.400   0.2621   0.00561   0.00123   0.0019  0.3625  0.8361  -0.8710   0.0000   0.0000   0.0000   0.2378
   2.500   0.2729   0.00566   0.00126   0.0020  0.3521  0.8432  -0.9006   0.0000   0.0000   0.0000   0.2377
   2.600   0.2837   0.00568   0.00129   0.0022  0.3431  0.8516  -0.9304   0.0000   0.0000   0.0000   0.2375
   2.700   0.2942   0.00575   0.00133   0.0023  0.3297  0.8594  -0.9602   0.0000   0.0000   0.0000   0.2372
   2.800   0.3053   0.00580   0.00136   0.0023  0.3208  0.8657  -0.9909   0.0000   0.0000   0.0000   0.2373
   2.900   0.3159   0.00585   0.00140   0.0025  0.3106  0.8730  -1.0211   0.0000   0.0000   0.0000   0.2370
   3.000   0.3264   0.00590   0.00144   0.0027  0.2999  0.8805  -1.0548   0.0000   0.0000   0.0000   0.2367
   3.100   0.3373   0.00595   0.00148   0.0028  0.2917  0.8872  -1.0896   0.0000   0.0000   0.0000   0.2366
   3.200   0.3480   0.00604   0.00152   0.0029  0.2786  0.8926  -1.1243   0.0000   0.0000   0.0000   0.2365
   3.300   0.3587   0.00609   0.00156   0.0030  0.2695  0.8990  -1.1592   0.0000   0.0000   0.0000   0.2363
   3.400   0.3691   0.00615   0.00161   0.0032  0.2592  0.9056  -1.1941   0.0000   0.0000   0.0000   0.2360
   3.500   0.3796   0.00623   0.00166   0.0034  0.2484  0.9116  -1.2294   0.0000   0.0000   0.0000   0.2357
   3.600   0.3905   0.00628   0.00170   0.0035  0.2416  0.9168  -1.2691   0.0000   0.0000   0.0000   0.2357
   3.700   0.4011   0.00638   0.00174   0.0036  0.2304  0.9211  -1.3092   0.0000   0.0000   0.0000   0.2356
   3.800   0.4116   0.00645   0.00180   0.0038  0.2204  0.9268  -1.3494   0.0000   0.0000   0.0000   0.2353
   3.900   0.4221   0.00652   0.00185   0.0040  0.2111  0.9321  -1.3899   0.0000   0.0000   0.0000   0.2350
   4.000   0.4324   0.00663   0.00192   0.0042  0.1987  0.9371  -1.4303   0.0000   0.0000   0.0000   0.2347
   4.100   0.4431   0.00669   0.00196   0.0043  0.1932  0.9415  -1.4721   0.0000   0.0000   0.0000   0.2346
   4.200   0.4536   0.00677   0.00202   0.0045  0.1851  0.9452  -1.5137   0.0000   0.0000   0.0000   0.2344
   4.300   0.4642   0.00688   0.00208   0.0046  0.1737  0.9492  -1.5556   0.0000   0.0000   0.0000   0.2343
   4.400   0.4752   0.00694   0.00213   0.0047  0.1680  0.9531  -1.6021   0.0000   0.0000   0.0000   0.2343
   4.500   0.4860   0.00705   0.00220   0.0048  0.1587  0.9569  -1.6501   0.0000   0.0000   0.0000   0.2343
   4.600   0.4966   0.00716   0.00226   0.0049  0.1484  0.9605  -1.6983   0.0000   0.0000   0.0000   0.2342
   4.700   0.5074   0.00723   0.00232   0.0050  0.1432  0.9641  -1.7472   0.0000   0.0000   0.0000   0.2341
   4.800   0.5174   0.00733   0.00238   0.0053  0.1362  0.9675  -1.7948   0.0000   0.0000   0.0000   0.2337
   4.900   0.5275   0.00744   0.00245   0.0055  0.1271  0.9703  -1.8429   0.0000   0.0000   0.0000   0.2334
   5.000   0.5401   0.00751   0.00251   0.0052  0.1228  0.9724  -1.8973   0.0000   0.0000   0.0000   0.2342
   5.100   0.5527   0.00760   0.00257   0.0049  0.1171  0.9744  -1.9521   0.0000   0.0000   0.0000   0.2349
   5.200   0.5651   0.00774   0.00266   0.0046  0.1090  0.9763  -2.0066   0.0000   0.0000   0.0000   0.2356
   5.300   0.5777   0.00783   0.00273   0.0043  0.1026  0.9782  -2.0623   0.0000   0.0000   0.0000   0.2363
   5.400   0.5900   0.00792   0.00280   0.0040  0.0983  0.9801  -2.1177   0.0000   0.0000   0.0000   0.2368
   5.500   0.6019   0.00804   0.00288   0.0038  0.0925  0.9820  -2.1767   0.0000   0.0000   0.0000   0.2372
   5.600   0.6139   0.00816   0.00297   0.0036  0.0855  0.9838  -2.2384   0.0000   0.0000   0.0000   0.2376
   5.700   0.6262   0.00824   0.00304   0.0034  0.0824  0.9855  -2.3017   0.0000   0.0000   0.0000   0.2380
   5.800   0.6382   0.00832   0.00311   0.0032  0.0797  0.9871  -2.3651   0.0000   0.0000   0.0000   0.2383
   5.900   0.6497   0.00843   0.00318   0.0031  0.0760  0.9886  -2.4275   0.0000   0.0000   0.0000   0.2385
   6.000   0.6615   0.00856   0.00328   0.0029  0.0713  0.9897  -2.4910   0.0000   0.0000   0.0000   0.2388
   6.100   0.6753   0.00867   0.00337   0.0023  0.0661  0.9901  -2.5605   0.0000   0.0000   0.0000   0.2397
   6.200   0.6893   0.00874   0.00344   0.0017  0.0647  0.9905  -2.6317   0.0000   0.0000   0.0000   0.2406
   6.300   0.7031   0.00884   0.00353   0.0010  0.0622  0.9910  -2.7029   0.0000   0.0000   0.0000   0.2415
   6.400   0.7167   0.00897   0.00361   0.0005  0.0589  0.9915  -2.7741   0.0000   0.0000   0.0000   0.2422
   6.500   0.7301   0.00910   0.00372  -0.0001  0.0546  0.9920  -2.8450   0.0000   0.0000   0.0000   0.2429
   6.600   0.7437   0.00921   0.00381  -0.0007  0.0516  0.9925  -2.9169   0.0000   0.0000   0.0000   0.2436
   6.700   0.7574   0.00929   0.00389  -0.0012  0.0506  0.9931  -2.9904   0.0000   0.0000   0.0000   0.2443
   6.800   0.7709   0.00938   0.00397  -0.0018  0.0491  0.9936  -3.0639   0.0000   0.0000   0.0000   0.2449
   6.900   0.7842   0.00949   0.00407  -0.0023  0.0472  0.9943  -3.1375   0.0000   0.0000   0.0000   0.2454
   7.000   0.7974   0.00962   0.00416  -0.0028  0.0449  0.9949  -3.2188   0.0000   0.0000   0.0000   0.2459
   7.100   0.8105   0.00976   0.00428  -0.0033  0.0420  0.9955  -3.2999   0.0000   0.0000   0.0000   0.2463
   7.200   0.8236   0.00987   0.00440  -0.0038  0.0401  0.9961  -3.3820   0.0000   0.0000   0.0000   0.2468
   7.300   0.8370   0.00995   0.00449  -0.0043  0.0396  0.9967  -3.4671   0.0000   0.0000   0.0000   0.2472
   7.400   0.8502   0.01004   0.00457  -0.0047  0.0389  0.9973  -3.5523   0.0000   0.0000   0.0000   0.2476
   7.500   0.8633   0.01014   0.00467  -0.0052  0.0379  0.9979  -3.6377   0.0000   0.0000   0.0000   0.2480
   7.600   0.8763   0.01025   0.00477  -0.0057  0.0367  0.9984  -3.7234   0.0000   0.0000   0.0000   0.2483
   7.700   0.8892   0.01038   0.00488  -0.0061  0.0353  0.9989  -3.8092   0.0000   0.0000   0.0000   0.2486
   7.800   0.9020   0.01053   0.00501  -0.0065  0.0335  0.9993  -3.8945   0.0000   0.0000   0.0000   0.2489
   7.900   0.9146   0.01071   0.00518  -0.0069  0.0313  0.9997  -3.9777   0.0000   0.0000   0.0000   0.2491
   8.000   0.9269   0.01079   0.00527  -0.0072  0.0309  1.0000  -4.0640   0.0000   0.0000   0.0000   0.2492
   8.100   0.9355   0.01086   0.00535  -0.0067  0.0306  1.0000  -4.1380   0.0000   0.0000   0.0000   0.2485
   8.200   0.9442   0.01094   0.00543  -0.0063  0.0303  1.0000  -4.2121   0.0000   0.0000   0.0000   0.2478
   8.300   0.9528   0.01102   0.00552  -0.0058  0.0298  1.0000  -4.2863   0.0000   0.0000   0.0000   0.2471
   8.400   0.9613   0.01112   0.00561  -0.0053  0.0293  1.0000  -4.3604   0.0000   0.0000   0.0000   0.2464
   8.500   0.9697   0.01122   0.00572  -0.0047  0.0287  1.0000  -4.4348   0.0000   0.0000   0.0000   0.2457
   8.600   0.9782   0.01133   0.00582  -0.0042  0.0281  1.0000  -4.5094   0.0000   0.0000   0.0000   0.2450
   8.700   0.9865   0.01144   0.00593  -0.0037  0.0275  1.0000  -4.5843   0.0000   0.0000   0.0000   0.2444
   8.800   0.9948   0.01157   0.00605  -0.0032  0.0267  1.0000  -4.6590   0.0000   0.0000   0.0000   0.2437
   8.900   1.0031   0.01171   0.00618  -0.0026  0.0259  1.0000  -4.7331   0.0000   0.0000   0.0000   0.2430
   9.000   1.0111   0.01187   0.00634  -0.0020  0.0249  1.0000  -4.8050   0.0000   0.0000   0.0000   0.2423
   9.100   1.0188   0.01207   0.00656  -0.0014  0.0239  1.0000  -4.8734   0.0000   0.0000   0.0000   0.2415
   9.200   1.0276   0.01217   0.00667  -0.0009  0.0237  1.0000  -4.9523   0.0000   0.0000   0.0000   0.2409
   9.300   1.0366   0.01226   0.00677  -0.0005  0.0236  1.0000  -5.0329   0.0000   0.0000   0.0000   0.2404
   9.400   1.0455   0.01235   0.00687  -0.0001  0.0234  1.0000  -5.1140   0.0000   0.0000   0.0000   0.2399
   9.500   1.0545   0.01245   0.00697   0.0003  0.0232  1.0000  -5.1953   0.0000   0.0000   0.0000   0.2394
   9.600   1.0635   0.01255   0.00708   0.0007  0.0229  1.0000  -5.2769   0.0000   0.0000   0.0000   0.2389
   9.700   1.0724   0.01266   0.00720   0.0011  0.0227  1.0000  -5.3587   0.0000   0.0000   0.0000   0.2384
   9.800   1.0813   0.01278   0.00732   0.0015  0.0224  1.0000  -5.4444   0.0000   0.0000   0.0000   0.2379
   9.900   1.0902   0.01290   0.00744   0.0019  0.0220  1.0000  -5.5353   0.0000   0.0000   0.0000   0.2374
  10.000   1.0991   0.01302   0.00758   0.0023  0.0217  1.0000  -5.6267   0.0000   0.0000   0.0000   0.2369
  10.100   1.1080   0.01316   0.00771   0.0027  0.0213  1.0000  -5.7187   0.0000   0.0000   0.0000   0.2365
  10.200   1.1169   0.01330   0.00785   0.0031  0.0210  1.0000  -5.8112   0.0000   0.0000   0.0000   0.2360
  10.300   1.1258   0.01344   0.00800   0.0034  0.0206  1.0000  -5.9043   0.0000   0.0000   0.0000   0.2356
  10.400   1.1346   0.01360   0.00816   0.0038  0.0202  1.0000  -5.9973   0.0000   0.0000   0.0000   0.2351
  10.500   1.1434   0.01377   0.00833   0.0042  0.0197  1.0000  -6.0897   0.0000   0.0000   0.0000   0.2347
  10.600   1.1519   0.01398   0.00855   0.0046  0.0191  1.0000  -6.1797   0.0000   0.0000   0.0000   0.2342
  10.700   1.1599   0.01424   0.00883   0.0051  0.0185  1.0000  -6.2655   0.0000   0.0000   0.0000   0.2337
  10.800   1.1676   0.01453   0.00915   0.0056  0.0179  1.0000  -6.3485   0.0000   0.0000   0.0000   0.2331
  10.900   1.1772   0.01464   0.00926   0.0059  0.0178  1.0000  -6.4500   0.0000   0.0000   0.0000   0.2328
  11.000   1.1867   0.01475   0.00938   0.0061  0.0178  1.0000  -6.5518   0.0000   0.0000   0.0000   0.2325
  11.100   1.1962   0.01486   0.00951   0.0063  0.0176  1.0000  -6.6535   0.0000   0.0000   0.0000   0.2322
  11.200   1.2055   0.01499   0.00964   0.0066  0.0175  1.0000  -6.7551   0.0000   0.0000   0.0000   0.2319
  11.300   1.2148   0.01513   0.00979   0.0068  0.0174  1.0000  -6.8563   0.0000   0.0000   0.0000   0.2316
  11.400   1.2240   0.01528   0.00995   0.0071  0.0172  1.0000  -6.9575   0.0000   0.0000   0.0000   0.2313
  11.500   1.2331   0.01543   0.01011   0.0074  0.0171  1.0000  -7.0588   0.0000   0.0000   0.0000   0.2310
  11.600   1.2422   0.01558   0.01029   0.0077  0.0169  1.0000  -7.1602   0.0000   0.0000   0.0000   0.2306
  11.700   1.2512   0.01574   0.01046   0.0080  0.0167  1.0000  -7.2618   0.0000   0.0000   0.0000   0.2303
  11.800   1.2601   0.01591   0.01064   0.0083  0.0165  1.0000  -7.3637   0.0000   0.0000   0.0000   0.2300
  11.900   1.2690   0.01608   0.01081   0.0086  0.0163  1.0000  -7.4659   0.0000   0.0000   0.0000   0.2296
  12.000   1.2778   0.01625   0.01100   0.0089  0.0162  1.0000  -7.5682   0.0000   0.0000   0.0000   0.2293
  12.100   1.2866   0.01643   0.01119   0.0092  0.0160  1.0000  -7.6705   0.0000   0.0000   0.0000   0.2289
  12.200   1.2952   0.01662   0.01138   0.0095  0.0158  1.0000  -7.7729   0.0000   0.0000   0.0000   0.2286
  12.300   1.3037   0.01681   0.01158   0.0099  0.0156  1.0000  -7.8752   0.0000   0.0000   0.0000   0.2282
  12.400   1.3122   0.01701   0.01179   0.0102  0.0154  1.0000  -7.9775   0.0000   0.0000   0.0000   0.2278
  12.500   1.3205   0.01721   0.01200   0.0106  0.0152  1.0000  -8.0794   0.0000   0.0000   0.0000   0.2274
  12.600   1.3286   0.01743   0.01223   0.0109  0.0150  1.0000  -8.1805   0.0000   0.0000   0.0000   0.2271
  12.700   1.3366   0.01766   0.01247   0.0113  0.0147  1.0000  -8.2803   0.0000   0.0000   0.0000   0.2266
  12.800   1.3442   0.01791   0.01273   0.0118  0.0145  1.0000  -8.3779   0.0000   0.0000   0.0000   0.2262
  12.900   1.3515   0.01819   0.01304   0.0123  0.0142  1.0000  -8.4721   0.0000   0.0000   0.0000   0.2257
  13.000   1.3581   0.01852   0.01339   0.0128  0.0140  1.0000  -8.5618   0.0000   0.0000   0.0000   0.2252
  13.100   1.3641   0.01889   0.01379   0.0135  0.0137  1.0000  -8.6455   0.0000   0.0000   0.0000   0.2246
  13.200   1.3689   0.01934   0.01429   0.0143  0.0134  1.0000  -8.7204   0.0000   0.0000   0.0000   0.2239
  13.300   1.3727   0.01986   0.01487   0.0152  0.0131  1.0000  -8.7866   0.0000   0.0000   0.0000   0.2231
  13.400   1.3804   0.02005   0.01509   0.0156  0.0131  1.0000  -8.8906   0.0000   0.0000   0.0000   0.2227
  13.500   1.3881   0.02025   0.01530   0.0160  0.0131  1.0000  -8.9943   0.0000   0.0000   0.0000   0.2223
  13.600   1.3956   0.02046   0.01552   0.0165  0.0130  1.0000  -9.0974   0.0000   0.0000   0.0000   0.2219
  13.700   1.4029   0.02067   0.01575   0.0169  0.0130  1.0000  -9.1998   0.0000   0.0000   0.0000   0.2214
  13.800   1.4097   0.02088   0.01599   0.0174  0.0130  1.0000  -9.2999   0.0000   0.0000   0.0000   0.2210
  13.900   1.4159   0.02111   0.01622   0.0181  0.0129  1.0000  -9.3964   0.0000   0.0000   0.0000   0.2204
  14.000   1.4217   0.02134   0.01647   0.0188  0.0129  1.0000  -9.4909   0.0000   0.0000   0.0000   0.2198
  14.100   1.4272   0.02158   0.01674   0.0195  0.0128  1.0000  -9.5840   0.0000   0.0000   0.0000   0.2191
  14.200   1.4326   0.02184   0.01701   0.0202  0.0127  1.0000  -9.6760   0.0000   0.0000   0.0000   0.2185
  14.300   1.4378   0.02211   0.01730   0.0210  0.0127  1.0000  -9.7673   0.0000   0.0000   0.0000   0.2179
  14.400   1.4428   0.02239   0.01761   0.0217  0.0126  1.0000  -9.8574   0.0000   0.0000   0.0000   0.2173
  14.500   1.4477   0.02269   0.01793   0.0224  0.0125  1.0000  -9.9470   0.0000   0.0000   0.0000   0.2166
  14.600   1.4526   0.02300   0.01827   0.0231  0.0125  1.0000  -10.0365   0.0000   0.0000   0.0000   0.2160
  14.700   1.4572   0.02333   0.01862   0.0238  0.0124  1.0000  -10.1240   0.0000   0.0000   0.0000   0.2154
  14.800   1.4615   0.02368   0.01899   0.0244  0.0123  1.0000  -10.2102   0.0000   0.0000   0.0000   0.2148
  14.900   1.4659   0.02404   0.01938   0.0251  0.0122  1.0000  -10.2963   0.0000   0.0000   0.0000   0.2143
  15.000   1.4701   0.02442   0.01978   0.0257  0.0122  1.0000  -10.3816   0.0000   0.0000   0.0000   0.2137


