xflr5 v6.61

 Calculated polar for: NACA 4412

 1 1 Reynolds number fixed          Mach number fixed         

 xtrf =   1.000 (top)        1.000 (bottom)
 Mach =   0.000     Re =     1.100 e 6     Ncrit =   9.000

  alpha     CL        CD       CDp       Cm    Top Xtr Bot Xtr   Cpmin    Chinge    XCp    
 ------- -------- --------- --------- -------- ------- ------- -------- --------- ---------
 -15.000  -0.7832   0.08265   0.08037  -0.0579  1.0000  0.0144  -8.6876   0.0000   0.0000   0.0000   0.1549
 -14.900  -0.8019   0.07803   0.07570  -0.0609  1.0000  0.0143  -8.9206   0.0000   0.0000   0.0000   0.1532
 -14.800  -0.8179   0.07391   0.07153  -0.0636  1.0000  0.0143  -9.1120   0.0000   0.0000   0.0000   0.1517
 -14.700  -0.8323   0.07008   0.06767  -0.0661  1.0000  0.0142  -9.2778   0.0000   0.0000   0.0000   0.1503
 -14.500  -0.8640   0.06205   0.05955  -0.0717  1.0000  0.0142  -9.6332   0.0000   0.0000   0.0000   0.1475
 -14.400  -0.8873   0.05690   0.05435  -0.0754  1.0000  0.0141  -9.8957   0.0000   0.0000   0.0000   0.1458
 -14.300  -0.9137   0.05102   0.04840  -0.0800  1.0000  0.0141  -10.1960   0.0000   0.0000   0.0000   0.1438
 -14.200  -0.9430   0.04332   0.04060  -0.0869  1.0000  0.0140  -10.5612   0.0000   0.0000   0.0000   0.1397
 -14.100  -0.9762   0.03555   0.03264  -0.0955  1.0000  0.0139  -10.9431   0.0000   0.0000   0.0000   0.1346
 -14.000  -0.9956   0.03450   0.03156  -0.0931  1.0000  0.0139  -11.0385   0.0000   0.0000   0.0000   0.1394
 -13.900  -1.0054   0.03357   0.03058  -0.0914  1.0000  0.0139  -11.0640   0.0000   0.0000   0.0000   0.1422
 -13.800  -1.0130   0.03276   0.02972  -0.0898  1.0000  0.0139  -11.0700   0.0000   0.0000   0.0000   0.1447
 -13.700  -1.0187   0.03203   0.02895  -0.0883  1.0000  0.0139  -11.0617   0.0000   0.0000   0.0000   0.1469
 -13.600  -1.0179   0.03120   0.02806  -0.0880  0.9997  0.0139  -11.0107   0.0000   0.0000   0.0000   0.1474
 -13.500  -1.0093   0.03027   0.02705  -0.0891  0.9990  0.0140  -10.9101   0.0000   0.0000   0.0000   0.1456
 -13.400  -1.0001   0.02944   0.02615  -0.0901  0.9983  0.0141  -10.8033   0.0000   0.0000   0.0000   0.1439
 -13.300  -0.9904   0.02871   0.02534  -0.0911  0.9976  0.0141  -10.6910   0.0000   0.0000   0.0000   0.1423
 -13.200  -0.9803   0.02804   0.02461  -0.0919  0.9970  0.0142  -10.5738   0.0000   0.0000   0.0000   0.1405
 -13.100  -0.9741   0.02657   0.02303  -0.0932  0.9962  0.0143  -10.5137   0.0000   0.0000   0.0000   0.1388
 -13.000  -0.9655   0.02555   0.02194  -0.0942  0.9956  0.0145  -10.4193   0.0000   0.0000   0.0000   0.1370
 -12.900  -0.9558   0.02482   0.02117  -0.0949  0.9950  0.0146  -10.3069   0.0000   0.0000   0.0000   0.1354
 -12.800  -0.9462   0.02426   0.02056  -0.0954  0.9940  0.0147  -10.1902   0.0000   0.0000   0.0000   0.1340
 -12.700  -0.9359   0.02376   0.02004  -0.0959  0.9932  0.0148  -10.0665   0.0000   0.0000   0.0000   0.1324
 -12.600  -0.9251   0.02332   0.01956  -0.0964  0.9924  0.0149  -9.9390   0.0000   0.0000   0.0000   0.1308
 -12.500  -0.9140   0.02290   0.01911  -0.0970  0.9917  0.0150  -9.8094   0.0000   0.0000   0.0000   0.1290
 -12.400  -0.9026   0.02249   0.01867  -0.0975  0.9910  0.0151  -9.6787   0.0000   0.0000   0.0000   0.1271
 -12.300  -0.8910   0.02210   0.01825  -0.0981  0.9904  0.0152  -9.5478   0.0000   0.0000   0.0000   0.1251
 -12.200  -0.8793   0.02171   0.01783  -0.0987  0.9898  0.0153  -9.4168   0.0000   0.0000   0.0000   0.1231
 -12.100  -0.8673   0.02133   0.01740  -0.0993  0.9893  0.0155  -9.2859   0.0000   0.0000   0.0000   0.1209
 -12.000  -0.8553   0.02095   0.01699  -0.1000  0.9889  0.0156  -9.1554   0.0000   0.0000   0.0000   0.1186
 -11.900  -0.8431   0.02057   0.01657  -0.1006  0.9885  0.0157  -9.0253   0.0000   0.0000   0.0000   0.1163
 -11.800  -0.8308   0.02020   0.01616  -0.1012  0.9881  0.0159  -8.9004   0.0000   0.0000   0.0000   0.1138
 -11.700  -0.8183   0.01984   0.01575  -0.1019  0.9878  0.0160  -8.7778   0.0000   0.0000   0.0000   0.1112
 -11.600  -0.8057   0.01950   0.01536  -0.1025  0.9875  0.0162  -8.6545   0.0000   0.0000   0.0000   0.1085
 -11.500  -0.7929   0.01919   0.01501  -0.1032  0.9872  0.0163  -8.5296   0.0000   0.0000   0.0000   0.1057
 -11.400  -0.7821   0.01893   0.01470  -0.1034  0.9860  0.0164  -8.4150   0.0000   0.0000   0.0000   0.1037
 -11.300  -0.7707   0.01869   0.01442  -0.1036  0.9849  0.0165  -8.2972   0.0000   0.0000   0.0000   0.1015
 -11.200  -0.7596   0.01827   0.01395  -0.1040  0.9839  0.0167  -8.1887   0.0000   0.0000   0.0000   0.0991
 -11.100  -0.7489   0.01766   0.01330  -0.1045  0.9830  0.0169  -8.0890   0.0000   0.0000   0.0000   0.0966
 -11.000  -0.7369   0.01728   0.01291  -0.1051  0.9824  0.0171  -7.9713   0.0000   0.0000   0.0000   0.0936
 -10.900  -0.7245   0.01699   0.01260  -0.1056  0.9818  0.0173  -7.8491   0.0000   0.0000   0.0000   0.0905
 -10.800  -0.7121   0.01674   0.01232  -0.1061  0.9811  0.0175  -7.7267   0.0000   0.0000   0.0000   0.0873
 -10.700  -0.6996   0.01649   0.01205  -0.1066  0.9805  0.0176  -7.6052   0.0000   0.0000   0.0000   0.0840
 -10.600  -0.6871   0.01625   0.01179  -0.1070  0.9799  0.0178  -7.4846   0.0000   0.0000   0.0000   0.0805
 -10.500  -0.6745   0.01601   0.01153  -0.1075  0.9793  0.0180  -7.3647   0.0000   0.0000   0.0000   0.0769
 -10.400  -0.6619   0.01577   0.01127  -0.1080  0.9787  0.0182  -7.2463   0.0000   0.0000   0.0000   0.0732
 -10.300  -0.6494   0.01554   0.01101  -0.1084  0.9781  0.0184  -7.1295   0.0000   0.0000   0.0000   0.0694
 -10.200  -0.6394   0.01534   0.01077  -0.1083  0.9762  0.0186  -7.0262   0.0000   0.0000   0.0000   0.0671
 -10.100  -0.6293   0.01514   0.01054  -0.1082  0.9743  0.0188  -6.9228   0.0000   0.0000   0.0000   0.0646
 -10.000  -0.6183   0.01494   0.01030  -0.1083  0.9727  0.0189  -6.8153   0.0000   0.0000   0.0000   0.0614
  -9.900  -0.6068   0.01475   0.01008  -0.1084  0.9714  0.0191  -6.7063   0.0000   0.0000   0.0000   0.0579
  -9.800  -0.5953   0.01458   0.00988  -0.1086  0.9701  0.0192  -6.5965   0.0000   0.0000   0.0000   0.0542
  -9.700  -0.5849   0.01419   0.00945  -0.1086  0.9688  0.0195  -6.5018   0.0000   0.0000   0.0000   0.0509
  -9.600  -0.5742   0.01387   0.00911  -0.1087  0.9676  0.0198  -6.4015   0.0000   0.0000   0.0000   0.0473
  -9.500  -0.5650   0.01366   0.00889  -0.1084  0.9652  0.0200  -6.3047   0.0000   0.0000   0.0000   0.0448
  -9.400  -0.5551   0.01348   0.00870  -0.1083  0.9629  0.0202  -6.2037   0.0000   0.0000   0.0000   0.0417
  -9.300  -0.5447   0.01332   0.00852  -0.1082  0.9608  0.0204  -6.1008   0.0000   0.0000   0.0000   0.0382
  -9.200  -0.5341   0.01316   0.00835  -0.1081  0.9590  0.0207  -5.9976   0.0000   0.0000   0.0000   0.0344
  -9.100  -0.5233   0.01301   0.00818  -0.1080  0.9573  0.0209  -5.8943   0.0000   0.0000   0.0000   0.0303
  -9.000  -0.5129   0.01287   0.00801  -0.1079  0.9551  0.0212  -5.7937   0.0000   0.0000   0.0000   0.0264
  -8.900  -0.5031   0.01273   0.00786  -0.1076  0.9521  0.0215  -5.7020   0.0000   0.0000   0.0000   0.0229
  -8.800  -0.4930   0.01260   0.00769  -0.1074  0.9493  0.0218  -5.6099   0.0000   0.0000   0.0000   0.0189
  -8.700  -0.4825   0.01248   0.00754  -0.1072  0.9468  0.0220  -5.5170   0.0000   0.0000   0.0000   0.0145
  -8.600  -0.4717   0.01237   0.00739  -0.1071  0.9447  0.0222  -5.4230   0.0000   0.0000   0.0000   0.0096
  -8.500  -0.4624   0.01208   0.00708  -0.1069  0.9415  0.0226  -5.3427   0.0000   0.0000   0.0000   0.0056
  -8.400  -0.4526   0.01185   0.00684  -0.1067  0.9384  0.0229  -5.2564   0.0000   0.0000   0.0000   0.0010
  -8.300  -0.4422   0.01169   0.00667  -0.1065  0.9358  0.0232  -5.1658   0.0000   0.0000   0.0000  -0.0042
  -8.200  -0.4315   0.01156   0.00652  -0.1064  0.9337  0.0235  -5.0736   0.0000   0.0000   0.0000  -0.0100
  -8.100  -0.4208   0.01144   0.00638  -0.1064  0.9317  0.0238  -4.9819   0.0000   0.0000   0.0000  -0.0162
  -8.000  -0.4102   0.01132   0.00625  -0.1063  0.9290  0.0242  -4.8918   0.0000   0.0000   0.0000  -0.0225
  -7.900  -0.3995   0.01121   0.00611  -0.1062  0.9264  0.0245  -4.8024   0.0000   0.0000   0.0000  -0.0293
  -7.800  -0.3887   0.01109   0.00598  -0.1061  0.9240  0.0249  -4.7135   0.0000   0.0000   0.0000  -0.0365
  -7.700  -0.3778   0.01099   0.00584  -0.1060  0.9218  0.0252  -4.6246   0.0000   0.0000   0.0000  -0.0442
  -7.600  -0.3668   0.01091   0.00572  -0.1059  0.9197  0.0254  -4.5356   0.0000   0.0000   0.0000  -0.0526
  -7.500  -0.3566   0.01068   0.00548  -0.1058  0.9168  0.0260  -4.4546   0.0000   0.0000   0.0000  -0.0607
  -7.400  -0.3460   0.01051   0.00531  -0.1057  0.9140  0.0264  -4.3690   0.0000   0.0000   0.0000  -0.0696
  -7.300  -0.3352   0.01040   0.00519  -0.1057  0.9113  0.0269  -4.2812   0.0000   0.0000   0.0000  -0.0794
  -7.200  -0.3242   0.01031   0.00508  -0.1056  0.9089  0.0274  -4.1933   0.0000   0.0000   0.0000  -0.0900
  -7.100  -0.3133   0.01022   0.00498  -0.1056  0.9066  0.0279  -4.1064   0.0000   0.0000   0.0000  -0.1015
  -7.000  -0.3022   0.01013   0.00487  -0.1055  0.9037  0.0283  -4.0206   0.0000   0.0000   0.0000  -0.1138
  -6.900  -0.2912   0.01005   0.00477  -0.1055  0.9009  0.0288  -3.9356   0.0000   0.0000   0.0000  -0.1271
  -6.800  -0.2801   0.00999   0.00468  -0.1054  0.8982  0.0291  -3.8508   0.0000   0.0000   0.0000  -0.1414
  -6.700  -0.2696   0.00978   0.00445  -0.1053  0.8956  0.0299  -3.7751   0.0000   0.0000   0.0000  -0.1560
  -6.600  -0.2587   0.00966   0.00433  -0.1053  0.8929  0.0305  -3.6974   0.0000   0.0000   0.0000  -0.1726
  -6.500  -0.2477   0.00957   0.00423  -0.1053  0.8897  0.0310  -3.6190   0.0000   0.0000   0.0000  -0.1909
  -6.400  -0.2366   0.00949   0.00413  -0.1052  0.8866  0.0316  -3.5413   0.0000   0.0000   0.0000  -0.2109
  -6.300  -0.2256   0.00942   0.00404  -0.1052  0.8838  0.0323  -3.4643   0.0000   0.0000   0.0000  -0.2329
  -6.200  -0.2144   0.00936   0.00395  -0.1051  0.8810  0.0329  -3.3875   0.0000   0.0000   0.0000  -0.2574
  -6.100  -0.2033   0.00926   0.00384  -0.1051  0.8777  0.0335  -3.3129   0.0000   0.0000   0.0000  -0.2844
  -6.000  -0.1925   0.00912   0.00370  -0.1050  0.8744  0.0345  -3.2395   0.0000   0.0000   0.0000  -0.3138
  -5.900  -0.1814   0.00904   0.00361  -0.1050  0.8714  0.0352  -3.1644   0.0000   0.0000   0.0000  -0.3474
  -5.800  -0.1703   0.00898   0.00353  -0.1049  0.8686  0.0360  -3.0897   0.0000   0.0000   0.0000  -0.3857
  -5.700  -0.1591   0.00891   0.00345  -0.1049  0.8652  0.0368  -3.0157   0.0000   0.0000   0.0000  -0.4300
  -5.600  -0.1479   0.00885   0.00337  -0.1049  0.8618  0.0375  -2.9423   0.0000   0.0000   0.0000  -0.4807
  -5.500  -0.1369   0.00875   0.00324  -0.1048  0.8585  0.0385  -2.8719   0.0000   0.0000   0.0000  -0.5382
  -5.400  -0.1259   0.00866   0.00314  -0.1048  0.8553  0.0396  -2.8005   0.0000   0.0000   0.0000  -0.6063
  -5.300  -0.1147   0.00858   0.00307  -0.1048  0.8516  0.0406  -2.7285   0.0000   0.0000   0.0000  -0.6889
  -5.200  -0.1036   0.00853   0.00300  -0.1048  0.8480  0.0417  -2.6592   0.0000   0.0000   0.0000  -0.7892
  -5.100  -0.0924   0.00850   0.00294  -0.1047  0.8446  0.0426  -2.5928   0.0000   0.0000   0.0000  -0.9136
  -5.000  -0.0813   0.00840   0.00283  -0.1047  0.8411  0.0440  -2.5286   0.0000   0.0000   0.0000  -1.0712
  -4.900  -0.0702   0.00832   0.00276  -0.1047  0.8373  0.0454  -2.4636   0.0000   0.0000   0.0000  -1.2796
  -4.800  -0.0590   0.00826   0.00269  -0.1046  0.8336  0.0467  -2.3989   0.0000   0.0000   0.0000  -1.5667
  -4.700  -0.0478   0.00822   0.00263  -0.1046  0.8302  0.0479  -2.3347   0.0000   0.0000   0.0000  -1.9893
  -4.600  -0.0366   0.00816   0.00255  -0.1046  0.8263  0.0492  -2.2713   0.0000   0.0000   0.0000  -2.6771
  -4.500  -0.0255   0.00808   0.00247  -0.1046  0.8222  0.0511  -2.2090   0.0000   0.0000   0.0000  -3.9441
  -4.400  -0.0144   0.00804   0.00241  -0.1045  0.8185  0.0529  -2.1464   0.0000   0.0000   0.0000  -7.1635
  -4.300  -0.0031   0.00799   0.00236  -0.1045  0.8145  0.0545  -2.0849   0.0000   0.0000   0.0000  -34.2028
  -4.200   0.0081   0.00794   0.00229  -0.1045  0.8102  0.0563  -2.0277   0.0000   0.0000   0.0000  13.4538
  -4.100   0.0191   0.00788   0.00223  -0.1044  0.8062  0.0586  -1.9709   0.0000   0.0000   0.0000   5.8220
  -4.000   0.0304   0.00783   0.00218  -0.1044  0.8022  0.0607  -1.9139   0.0000   0.0000   0.0000   3.7554
  -3.900   0.0416   0.00780   0.00213  -0.1044  0.7978  0.0624  -1.8572   0.0000   0.0000   0.0000   2.8040
  -3.800   0.0527   0.00774   0.00207  -0.1044  0.7937  0.0654  -1.8022   0.0000   0.0000   0.0000   2.2675
  -3.700   0.0639   0.00769   0.00202  -0.1044  0.7895  0.0681  -1.7466   0.0000   0.0000   0.0000   1.9121
  -3.600   0.0751   0.00767   0.00198  -0.1043  0.7849  0.0704  -1.6914   0.0000   0.0000   0.0000   1.6619
  -3.500   0.0862   0.00762   0.00192  -0.1043  0.7805  0.0737  -1.6377   0.0000   0.0000   0.0000   1.4799
  -3.400   0.0974   0.00757   0.00188  -0.1043  0.7761  0.0769  -1.5867   0.0000   0.0000   0.0000   1.3374
  -3.300   0.1086   0.00755   0.00184  -0.1043  0.7713  0.0796  -1.5363   0.0000   0.0000   0.0000   1.2242
  -3.100   0.1309   0.00746   0.00176  -0.1042  0.7622  0.0875  -1.4376   0.0000   0.0000   0.0000   1.0571
  -3.000   0.1421   0.00744   0.00172  -0.1042  0.7574  0.0912  -1.3888   0.0000   0.0000   0.0000   0.9930
  -2.900   0.1531   0.00740   0.00168  -0.1041  0.7528  0.0958  -1.3407   0.0000   0.0000   0.0000   0.9387
  -2.800   0.1644   0.00737   0.00165  -0.1041  0.7479  0.0997  -1.2925   0.0000   0.0000   0.0000   0.8910
  -2.700   0.1754   0.00734   0.00162  -0.1041  0.7429  0.1050  -1.2456   0.0000   0.0000   0.0000   0.8501
  -2.600   0.1866   0.00731   0.00159  -0.1041  0.7381  0.1099  -1.2013   0.0000   0.0000   0.0000   0.8137
  -2.500   0.1978   0.00728   0.00156  -0.1041  0.7330  0.1152  -1.1576   0.0000   0.0000   0.0000   0.7815
  -2.300   0.2200   0.00723   0.00151  -0.1040  0.7231  0.1267  -1.0714   0.0000   0.0000   0.0000   0.7269
  -2.200   0.2311   0.00721   0.00149  -0.1040  0.7178  0.1329  -1.0304   0.0000   0.0000   0.0000   0.7036
  -2.100   0.2422   0.00718   0.00146  -0.1040  0.7129  0.1391  -0.9909   0.0000   0.0000   0.0000   0.6824
  -2.000   0.2534   0.00716   0.00144  -0.1039  0.7075  0.1459  -0.9516   0.0000   0.0000   0.0000   0.6631
  -1.800   0.2756   0.00713   0.00141  -0.1039  0.6972  0.1599  -0.8744   0.0000   0.0000   0.0000   0.6291
  -1.700   0.2867   0.00710   0.00139  -0.1039  0.6918  0.1680  -0.8379   0.0000   0.0000   0.0000   0.6142
  -1.600   0.2978   0.00709   0.00138  -0.1038  0.6867  0.1756  -0.8024   0.0000   0.0000   0.0000   0.6003
  -1.500   0.3089   0.00707   0.00137  -0.1038  0.6811  0.1841  -0.7673   0.0000   0.0000   0.0000   0.5874
  -1.400   0.3199   0.00706   0.00136  -0.1038  0.6759  0.1927  -0.7328   0.0000   0.0000   0.0000   0.5755
  -1.300   0.3311   0.00704   0.00135  -0.1038  0.6705  0.2015  -0.6981   0.0000   0.0000   0.0000   0.5642
  -1.200   0.3421   0.00703   0.00134  -0.1037  0.6651  0.2110  -0.6757   0.0000   0.0000   0.0000   0.5538
  -1.100   0.3532   0.00701   0.00134  -0.1037  0.6599  0.2207  -0.6836   0.0000   0.0000   0.0000   0.5440
  -1.000   0.3643   0.00700   0.00134  -0.1037  0.6543  0.2306  -0.6915   0.0000   0.0000   0.0000   0.5348
  -0.900   0.3753   0.00700   0.00133  -0.1037  0.6491  0.2409  -0.6997   0.0000   0.0000   0.0000   0.5262
  -0.800   0.3864   0.00698   0.00133  -0.1037  0.6436  0.2520  -0.7079   0.0000   0.0000   0.0000   0.5180
  -0.600   0.4085   0.00695   0.00133  -0.1036  0.6331  0.2761  -0.7242   0.0000   0.0000   0.0000   0.5031
  -0.500   0.4195   0.00694   0.00134  -0.1036  0.6276  0.2888  -0.7324   0.0000   0.0000   0.0000   0.4962
  -0.400   0.4305   0.00693   0.00134  -0.1036  0.6225  0.3023  -0.7408   0.0000   0.0000   0.0000   0.4896
  -0.300   0.4416   0.00691   0.00135  -0.1035  0.6171  0.3170  -0.7493   0.0000   0.0000   0.0000   0.4834
  -0.100   0.4636   0.00687   0.00136  -0.1035  0.6070  0.3503  -0.7662   0.0000   0.0000   0.0000   0.4719
   0.000   0.4745   0.00684   0.00137  -0.1035  0.6017  0.3710  -0.7747   0.0000   0.0000   0.0000   0.4666
   0.100   0.4853   0.00680   0.00138  -0.1035  0.5969  0.3965  -0.7834   0.0000   0.0000   0.0000   0.4615
   0.200   0.4962   0.00671   0.00139  -0.1034  0.5918  0.4364  -0.7921   0.0000   0.0000   0.0000   0.4567
   0.300   0.5067   0.00661   0.00141  -0.1034  0.5870  0.4910  -0.8006   0.0000   0.0000   0.0000   0.4522
   0.400   0.5173   0.00650   0.00144  -0.1033  0.5824  0.5443  -0.8092   0.0000   0.0000   0.0000   0.4478
   0.500   0.5279   0.00641   0.00146  -0.1033  0.5774  0.5935  -0.8179   0.0000   0.0000   0.0000   0.4435
   0.600   0.5382   0.00634   0.00149  -0.1031  0.5729  0.6404  -0.8267   0.0000   0.0000   0.0000   0.4394
   0.700   0.5488   0.00625   0.00152  -0.1030  0.5684  0.6859  -0.8357   0.0000   0.0000   0.0000   0.4354
   0.800   0.5590   0.00616   0.00155  -0.1028  0.5639  0.7320  -0.8445   0.0000   0.0000   0.0000   0.4315
   0.900   0.5686   0.00608   0.00159  -0.1025  0.5597  0.7806  -0.8530   0.0000   0.0000   0.0000   0.4276
   1.000   0.5780   0.00597   0.00163  -0.1020  0.5555  0.8306  -0.8615   0.0000   0.0000   0.0000   0.4238
   1.100   0.5862   0.00588   0.00167  -0.1012  0.5513  0.8810  -0.8696   0.0000   0.0000   0.0000   0.4199
   1.200   0.5938   0.00584   0.00171  -0.1002  0.5475  0.9297  -0.8774   0.0000   0.0000   0.0000   0.4159
   1.300   0.6080   0.00583   0.00172  -0.1008  0.5433  0.9669  -0.8889   0.0000   0.0000   0.0000   0.4127
   1.400   0.6256   0.00586   0.00174  -0.1022  0.5387  0.9867  -0.9024   0.0000   0.0000   0.0000   0.4102
   1.600   0.6557   0.00594   0.00177  -0.1039  0.5307  1.0000  -0.9271   0.0000   0.0000   0.0000   0.4052
   1.700   0.6664   0.00598   0.00179  -0.1038  0.5269  1.0000  -0.9370   0.0000   0.0000   0.0000   0.4024
   1.800   0.6769   0.00603   0.00181  -0.1037  0.5232  1.0000  -0.9471   0.0000   0.0000   0.0000   0.3996
   1.900   0.6876   0.00608   0.00183  -0.1036  0.5198  1.0000  -0.9573   0.0000   0.0000   0.0000   0.3970
   2.000   0.6984   0.00611   0.00185  -0.1035  0.5163  1.0000  -0.9676   0.0000   0.0000   0.0000   0.3944
   2.100   0.7092   0.00615   0.00187  -0.1034  0.5128  1.0000  -0.9781   0.0000   0.0000   0.0000   0.3919
   2.200   0.7197   0.00621   0.00190  -0.1033  0.5094  1.0000  -0.9887   0.0000   0.0000   0.0000   0.3895
   2.300   0.7306   0.00625   0.00192  -0.1032  0.5063  1.0000  -0.9995   0.0000   0.0000   0.0000   0.3872
   2.400   0.7415   0.00628   0.00195  -0.1031  0.5031  1.0000  -1.0104   0.0000   0.0000   0.0000   0.3849
   2.500   0.7523   0.00633   0.00198  -0.1031  0.4998  1.0000  -1.0216   0.0000   0.0000   0.0000   0.3827
   2.600   0.7629   0.00639   0.00201  -0.1029  0.4967  1.0000  -1.0327   0.0000   0.0000   0.0000   0.3806
   2.700   0.7738   0.00643   0.00203  -0.1029  0.4938  1.0000  -1.0441   0.0000   0.0000   0.0000   0.3785
   2.800   0.7848   0.00646   0.00206  -0.1028  0.4907  1.0000  -1.0559   0.0000   0.0000   0.0000   0.3765
   2.900   0.7956   0.00651   0.00209  -0.1028  0.4876  1.0000  -1.0677   0.0000   0.0000   0.0000   0.3745
   3.000   0.8063   0.00656   0.00212  -0.1027  0.4846  1.0000  -1.0796   0.0000   0.0000   0.0000   0.3726
   3.100   0.8171   0.00661   0.00216  -0.1026  0.4818  1.0000  -1.0919   0.0000   0.0000   0.0000   0.3707
   3.200   0.8281   0.00665   0.00219  -0.1026  0.4790  1.0000  -1.1044   0.0000   0.0000   0.0000   0.3689
   3.300   0.8390   0.00669   0.00222  -0.1025  0.4760  1.0000  -1.1173   0.0000   0.0000   0.0000   0.3671
   3.400   0.8498   0.00674   0.00226  -0.1024  0.4730  1.0000  -1.1302   0.0000   0.0000   0.0000   0.3653
   3.500   0.8604   0.00681   0.00230  -0.1023  0.4701  1.0000  -1.1433   0.0000   0.0000   0.0000   0.3636
   3.600   0.8715   0.00684   0.00233  -0.1023  0.4674  1.0000  -1.1571   0.0000   0.0000   0.0000   0.3620
   3.700   0.8824   0.00688   0.00236  -0.1023  0.4644  1.0000  -1.1713   0.0000   0.0000   0.0000   0.3604
   3.800   0.8932   0.00693   0.00240  -0.1022  0.4614  1.0000  -1.1857   0.0000   0.0000   0.0000   0.3588
   3.900   0.9038   0.00699   0.00244  -0.1021  0.4584  1.0000  -1.2006   0.0000   0.0000   0.0000   0.3572
   4.000   0.9147   0.00704   0.00248  -0.1021  0.4556  1.0000  -1.2163   0.0000   0.0000   0.0000   0.3557
   4.100   0.9257   0.00708   0.00252  -0.1020  0.4525  1.0000  -1.2331   0.0000   0.0000   0.0000   0.3543
   4.200   0.9365   0.00713   0.00256  -0.1020  0.4493  1.0000  -1.2513   0.0000   0.0000   0.0000   0.3528
   4.300   0.9471   0.00720   0.00261  -0.1019  0.4459  1.0000  -1.2726   0.0000   0.0000   0.0000   0.3514
   4.400   0.9578   0.00725   0.00265  -0.1018  0.4428  1.0000  -1.2977   0.0000   0.0000   0.0000   0.3500
   4.500   0.9688   0.00729   0.00269  -0.1018  0.4392  1.0000  -1.3257   0.0000   0.0000   0.0000   0.3486
   4.600   0.9794   0.00735   0.00273  -0.1017  0.4354  1.0000  -1.3552   0.0000   0.0000   0.0000   0.3473
   4.800   1.0008   0.00747   0.00283  -0.1015  0.4277  1.0000  -1.4193   0.0000   0.0000   0.0000   0.3447
   4.900   1.0115   0.00752   0.00287  -0.1014  0.4233  1.0000  -1.4530   0.0000   0.0000   0.0000   0.3434
   5.100   1.0327   0.00765   0.00297  -0.1012  0.4147  1.0000  -1.5258   0.0000   0.0000   0.0000   0.3410
   5.200   1.0433   0.00771   0.00302  -0.1012  0.4100  1.0000  -1.5637   0.0000   0.0000   0.0000   0.3398
   5.300   1.0536   0.00779   0.00308  -0.1010  0.4055  1.0000  -1.6013   0.0000   0.0000   0.0000   0.3386
   5.400   1.0644   0.00784   0.00312  -0.1010  0.4008  1.0000  -1.6420   0.0000   0.0000   0.0000   0.3374
   5.500   1.0748   0.00792   0.00318  -0.1008  0.3957  1.0000  -1.6824   0.0000   0.0000   0.0000   0.3363
   5.600   1.0852   0.00799   0.00324  -0.1007  0.3910  1.0000  -1.7254   0.0000   0.0000   0.0000   0.3351
   5.700   1.0957   0.00806   0.00329  -0.1006  0.3854  1.0000  -1.7688   0.0000   0.0000   0.0000   0.3340
   5.800   1.1059   0.00815   0.00336  -0.1005  0.3801  1.0000  -1.8121   0.0000   0.0000   0.0000   0.3329
   5.900   1.1164   0.00822   0.00342  -0.1004  0.3743  1.0000  -1.8585   0.0000   0.0000   0.0000   0.3319
   6.000   1.1264   0.00832   0.00349  -0.1002  0.3683  1.0000  -1.9041   0.0000   0.0000   0.0000   0.3308
   6.100   1.1367   0.00840   0.00356  -0.1001  0.3619  1.0000  -1.9510   0.0000   0.0000   0.0000   0.3297
   6.200   1.1466   0.00851   0.00363  -0.0999  0.3553  1.0000  -1.9970   0.0000   0.0000   0.0000   0.3287
   6.300   1.1567   0.00861   0.00371  -0.0997  0.3481  1.0000  -2.0453   0.0000   0.0000   0.0000   0.3276
   6.400   1.1665   0.00872   0.00379  -0.0995  0.3413  1.0000  -2.0944   0.0000   0.0000   0.0000   0.3266
   6.500   1.1762   0.00884   0.00388  -0.0993  0.3334  1.0000  -2.1437   0.0000   0.0000   0.0000   0.3256
   6.600   1.1861   0.00896   0.00396  -0.0991  0.3257  1.0000  -2.1938   0.0000   0.0000   0.0000   0.3246
   6.700   1.1955   0.00910   0.00406  -0.0988  0.3175  1.0000  -2.2458   0.0000   0.0000   0.0000   0.3236
   6.800   1.2048   0.00924   0.00417  -0.0985  0.3084  1.0000  -2.2978   0.0000   0.0000   0.0000   0.3226
   6.900   1.2142   0.00939   0.00427  -0.0982  0.2991  1.0000  -2.3504   0.0000   0.0000   0.0000   0.3216
   7.000   1.2234   0.00954   0.00439  -0.0979  0.2897  1.0000  -2.4028   0.0000   0.0000   0.0000   0.3206
   7.100   1.2324   0.00972   0.00451  -0.0976  0.2797  1.0000  -2.4550   0.0000   0.0000   0.0000   0.3196
   7.200   1.2412   0.00990   0.00464  -0.0972  0.2692  1.0000  -2.5094   0.0000   0.0000   0.0000   0.3186
   7.300   1.2498   0.01009   0.00477  -0.0968  0.2583  1.0000  -2.5642   0.0000   0.0000   0.0000   0.3176
   7.400   1.2583   0.01030   0.00492  -0.0964  0.2470  1.0000  -2.6189   0.0000   0.0000   0.0000   0.3167
   7.800   1.2907   0.01120   0.00557  -0.0946  0.1998  1.0000  -2.8371   0.0000   0.0000   0.0000   0.3127
   7.900   1.2984   0.01145   0.00575  -0.0940  0.1878  1.0000  -2.8913   0.0000   0.0000   0.0000   0.3118
   8.000   1.3059   0.01170   0.00594  -0.0935  0.1758  1.0000  -2.9464   0.0000   0.0000   0.0000   0.3108
   8.100   1.3133   0.01196   0.00613  -0.0929  0.1641  1.0000  -3.0033   0.0000   0.0000   0.0000   0.3098
   8.200   1.3206   0.01223   0.00633  -0.0923  0.1528  1.0000  -3.0601   0.0000   0.0000   0.0000   0.3088
   8.300   1.3278   0.01249   0.00653  -0.0917  0.1420  1.0000  -3.1170   0.0000   0.0000   0.0000   0.3079
   8.400   1.3348   0.01276   0.00674  -0.0911  0.1318  1.0000  -3.1739   0.0000   0.0000   0.0000   0.3069
   8.500   1.3419   0.01302   0.00695  -0.0905  0.1221  1.0000  -3.2312   0.0000   0.0000   0.0000   0.3059
   8.600   1.3491   0.01327   0.00715  -0.0898  0.1134  1.0000  -3.2891   0.0000   0.0000   0.0000   0.3050
   8.700   1.3563   0.01352   0.00735  -0.0892  0.1055  1.0000  -3.3474   0.0000   0.0000   0.0000   0.3040
   8.800   1.3632   0.01377   0.00756  -0.0886  0.0983  1.0000  -3.4053   0.0000   0.0000   0.0000   0.3031
   8.900   1.3700   0.01403   0.00778  -0.0879  0.0914  1.0000  -3.4657   0.0000   0.0000   0.0000   0.3021
   9.000   1.3773   0.01425   0.00797  -0.0873  0.0856  1.0000  -3.5285   0.0000   0.0000   0.0000   0.3012
   9.100   1.3839   0.01450   0.00818  -0.0866  0.0801  1.0000  -3.5896   0.0000   0.0000   0.0000   0.3002
   9.200   1.3906   0.01473   0.00839  -0.0859  0.0750  1.0000  -3.6513   0.0000   0.0000   0.0000   0.2993
   9.300   1.3968   0.01495   0.00858  -0.0851  0.0707  1.0000  -3.7115   0.0000   0.0000   0.0000   0.2983
   9.400   1.4029   0.01517   0.00879  -0.0843  0.0666  1.0000  -3.7717   0.0000   0.0000   0.0000   0.2973
   9.500   1.4089   0.01540   0.00900  -0.0835  0.0630  1.0000  -3.8320   0.0000   0.0000   0.0000   0.2963
   9.600   1.4153   0.01562   0.00920  -0.0827  0.0598  1.0000  -3.8939   0.0000   0.0000   0.0000   0.2953
   9.700   1.4208   0.01587   0.00944  -0.0818  0.0566  1.0000  -3.9532   0.0000   0.0000   0.0000   0.2943
   9.800   1.4276   0.01607   0.00963  -0.0812  0.0542  1.0000  -4.0173   0.0000   0.0000   0.0000   0.2934
   9.900   1.4335   0.01631   0.00986  -0.0804  0.0516  1.0000  -4.0790   0.0000   0.0000   0.0000   0.2925
  10.000   1.4394   0.01656   0.01009  -0.0796  0.0492  1.0000  -4.1432   0.0000   0.0000   0.0000   0.2916
  10.100   1.4459   0.01677   0.01030  -0.0789  0.0472  1.0000  -4.2108   0.0000   0.0000   0.0000   0.2907
  10.200   1.4517   0.01702   0.01055  -0.0781  0.0452  1.0000  -4.2757   0.0000   0.0000   0.0000   0.2898
  10.300   1.4572   0.01729   0.01081  -0.0773  0.0432  1.0000  -4.3399   0.0000   0.0000   0.0000   0.2888
  10.400   1.4638   0.01750   0.01103  -0.0766  0.0417  1.0000  -4.4087   0.0000   0.0000   0.0000   0.2880
  10.500   1.4697   0.01775   0.01128  -0.0759  0.0402  1.0000  -4.4753   0.0000   0.0000   0.0000   0.2871
  10.600   1.4750   0.01804   0.01156  -0.0751  0.0387  1.0000  -4.5393   0.0000   0.0000   0.0000   0.2862
  10.700   1.4809   0.01830   0.01182  -0.0743  0.0374  1.0000  -4.6060   0.0000   0.0000   0.0000   0.2854
  10.800   1.4871   0.01853   0.01207  -0.0737  0.0363  1.0000  -4.6750   0.0000   0.0000   0.0000   0.2845
  10.900   1.4929   0.01880   0.01234  -0.0729  0.0352  1.0000  -4.7421   0.0000   0.0000   0.0000   0.2837
  11.000   1.4980   0.01910   0.01264  -0.0722  0.0341  1.0000  -4.8072   0.0000   0.0000   0.0000   0.2828
  11.100   1.5026   0.01944   0.01298  -0.0713  0.0329  1.0000  -4.8696   0.0000   0.0000   0.0000   0.2820
  11.200   1.5090   0.01968   0.01324  -0.0707  0.0322  1.0000  -4.9402   0.0000   0.0000   0.0000   0.2812
  11.300   1.5148   0.01995   0.01352  -0.0700  0.0314  1.0000  -5.0091   0.0000   0.0000   0.0000   0.2804
  11.400   1.5201   0.02025   0.01383  -0.0693  0.0305  1.0000  -5.0762   0.0000   0.0000   0.0000   0.2796
  11.500   1.5249   0.02060   0.01418  -0.0686  0.0297  1.0000  -5.1413   0.0000   0.0000   0.0000   0.2788
  11.600   1.5290   0.02099   0.01457  -0.0677  0.0288  1.0000  -5.2028   0.0000   0.0000   0.0000   0.2779
  11.700   1.5344   0.02129   0.01489  -0.0671  0.0282  1.0000  -5.2721   0.0000   0.0000   0.0000   0.2772
  11.800   1.5401   0.02159   0.01521  -0.0664  0.0277  1.0000  -5.3453   0.0000   0.0000   0.0000   0.2764
  11.900   1.5453   0.02192   0.01555  -0.0658  0.0271  1.0000  -5.4167   0.0000   0.0000   0.0000   0.2757
  12.000   1.5502   0.02227   0.01592  -0.0651  0.0265  1.0000  -5.4868   0.0000   0.0000   0.0000   0.2749
  12.100   1.5546   0.02266   0.01632  -0.0644  0.0259  1.0000  -5.5552   0.0000   0.0000   0.0000   0.2742
  12.200   1.5583   0.02310   0.01677  -0.0636  0.0253  1.0000  -5.6202   0.0000   0.0000   0.0000   0.2734
  12.300   1.5614   0.02360   0.01727  -0.0627  0.0247  1.0000  -5.6814   0.0000   0.0000   0.0000   0.2726
  12.400   1.5668   0.02393   0.01763  -0.0622  0.0244  1.0000  -5.7552   0.0000   0.0000   0.0000   0.2719
  12.500   1.5719   0.02430   0.01802  -0.0616  0.0239  1.0000  -5.8278   0.0000   0.0000   0.0000   0.2712
  12.600   1.5767   0.02469   0.01843  -0.0610  0.0235  1.0000  -5.8993   0.0000   0.0000   0.0000   0.2705
  12.700   1.5810   0.02512   0.01887  -0.0604  0.0231  1.0000  -5.9690   0.0000   0.0000   0.0000   0.2698
  12.800   1.5850   0.02557   0.01934  -0.0597  0.0226  1.0000  -6.0375   0.0000   0.0000   0.0000   0.2691
  12.900   1.5884   0.02607   0.01985  -0.0590  0.0222  1.0000  -6.1032   0.0000   0.0000   0.0000   0.2684
  13.000   1.5912   0.02664   0.02043  -0.0583  0.0218  1.0000  -6.1654   0.0000   0.0000   0.0000   0.2677
  13.100   1.5927   0.02731   0.02112  -0.0575  0.0213  1.0000  -6.2201   0.0000   0.0000   0.0000   0.2670
  13.200   1.5975   0.02773   0.02157  -0.0570  0.0211  1.0000  -6.2932   0.0000   0.0000   0.0000   0.2664
  13.300   1.6018   0.02820   0.02207  -0.0565  0.0208  1.0000  -6.3637   0.0000   0.0000   0.0000   0.2657
  13.400   1.6057   0.02870   0.02259  -0.0559  0.0205  1.0000  -6.4329   0.0000   0.0000   0.0000   0.2651
  13.500   1.6094   0.02922   0.02314  -0.0554  0.0202  1.0000  -6.5009   0.0000   0.0000   0.0000   0.2645
  13.600   1.6129   0.02977   0.02371  -0.0548  0.0199  1.0000  -6.5682   0.0000   0.0000   0.0000   0.2639
  13.700   1.6160   0.03036   0.02432  -0.0543  0.0196  1.0000  -6.6338   0.0000   0.0000   0.0000   0.2633
  13.800   1.6188   0.03099   0.02496  -0.0538  0.0194  1.0000  -6.6980   0.0000   0.0000   0.0000   0.2627
  13.900   1.6210   0.03166   0.02566  -0.0532  0.0191  1.0000  -6.7594   0.0000   0.0000   0.0000   0.2621
  14.000   1.6227   0.03240   0.02641  -0.0526  0.0188  1.0000  -6.8172   0.0000   0.0000   0.0000   0.2615
  14.100   1.6232   0.03325   0.02729  -0.0520  0.0185  1.0000  -6.8681   0.0000   0.0000   0.0000   0.2609
  14.200   1.6235   0.03413   0.02819  -0.0514  0.0183  1.0000  -6.9176   0.0000   0.0000   0.0000   0.2603
  14.300   1.6269   0.03475   0.02884  -0.0510  0.0181  1.0000  -6.9851   0.0000   0.0000   0.0000   0.2598
  14.400   1.6298   0.03541   0.02953  -0.0506  0.0179  1.0000  -7.0535   0.0000   0.0000   0.0000   0.2593
  14.500   1.6325   0.03611   0.03026  -0.0502  0.0177  1.0000  -7.1209   0.0000   0.0000   0.0000   0.2588
  14.600   1.6349   0.03684   0.03102  -0.0498  0.0175  1.0000  -7.1870   0.0000   0.0000   0.0000   0.2583
  14.700   1.6372   0.03759   0.03180  -0.0494  0.0173  1.0000  -7.2525   0.0000   0.0000   0.0000   0.2578
  14.800   1.6392   0.03836   0.03260  -0.0490  0.0171  1.0000  -7.3169   0.0000   0.0000   0.0000   0.2573
  14.900   1.6411   0.03916   0.03343  -0.0487  0.0169  1.0000  -7.3808   0.0000   0.0000   0.0000   0.2568
  15.000   1.6425   0.04001   0.03430  -0.0483  0.0167  1.0000  -7.4425   0.0000   0.0000   0.0000   0.2564


