xflr5 v6.61

 Calculated polar for: NACA 4412

 1 1 Reynolds number fixed          Mach number fixed         

 xtrf =   1.000 (top)        1.000 (bottom)
 Mach =   0.000     Re =     0.500 e 6     Ncrit =   9.000

  alpha     CL        CD       CDp       Cm    Top Xtr Bot Xtr   Cpmin    Chinge    XCp    
 ------- -------- --------- --------- -------- ------- ------- -------- --------- ---------
 -15.000  -0.4245   0.16661   0.16400  -0.0215  1.0000  0.0226  -1.8158   0.0000   0.0000   0.0000   0.1798
 -14.900  -0.4210   0.16557   0.16296  -0.0218  1.0000  0.0227  -1.7916   0.0000   0.0000   0.0000   0.1786
 -14.800  -0.4176   0.16451   0.16190  -0.0223  1.0000  0.0228  -1.7715   0.0000   0.0000   0.0000   0.1772
 -14.700  -0.4143   0.16341   0.16080  -0.0227  1.0000  0.0230  -1.7551   0.0000   0.0000   0.0000   0.1758
 -14.600  -0.4111   0.16228   0.15967  -0.0232  1.0000  0.0231  -1.7422   0.0000   0.0000   0.0000   0.1742
 -14.500  -0.4081   0.16110   0.15850  -0.0237  1.0000  0.0233  -1.7327   0.0000   0.0000   0.0000   0.1726
 -14.400  -0.4052   0.15989   0.15728  -0.0243  1.0000  0.0236  -1.7266   0.0000   0.0000   0.0000   0.1709
 -14.300  -0.4024   0.15862   0.15602  -0.0248  1.0000  0.0238  -1.7242   0.0000   0.0000   0.0000   0.1692
 -14.200  -0.3998   0.15728   0.15469  -0.0254  1.0000  0.0242  -1.7269   0.0000   0.0000   0.0000   0.1674
 -14.100  -0.3975   0.15585   0.15326  -0.0261  1.0000  0.0246  -1.7395   0.0000   0.0000   0.0000   0.1654
 -14.000  -0.4085   0.15174   0.14916  -0.0300  1.0000  0.0255  -2.0512   0.0000   0.0000   0.0000   0.1577
 -13.900  -0.4091   0.14968   0.14711  -0.0310  1.0000  0.0255  -2.1150   0.0000   0.0000   0.0000   0.1552
 -13.800  -0.4039   0.14864   0.14606  -0.0308  1.0000  0.0256  -2.0560   0.0000   0.0000   0.0000   0.1548
 -13.700  -0.3986   0.14771   0.14514  -0.0306  1.0000  0.0257  -1.9979   0.0000   0.0000   0.0000   0.1543
 -13.600  -0.3939   0.14681   0.14424  -0.0306  1.0000  0.0258  -1.9488   0.0000   0.0000   0.0000   0.1535
 -13.500  -0.3898   0.14589   0.14332  -0.0307  1.0000  0.0259  -1.9067   0.0000   0.0000   0.0000   0.1526
 -13.400  -0.3860   0.14495   0.14238  -0.0309  1.0000  0.0260  -1.8708   0.0000   0.0000   0.0000   0.1514
 -13.300  -0.3824   0.14398   0.14141  -0.0311  1.0000  0.0261  -1.8407   0.0000   0.0000   0.0000   0.1501
 -13.200  -0.3792   0.14296   0.14039  -0.0314  1.0000  0.0263  -1.8160   0.0000   0.0000   0.0000   0.1487
 -13.100  -0.3762   0.14188   0.13931  -0.0318  1.0000  0.0266  -1.7966   0.0000   0.0000   0.0000   0.1471
 -13.000  -0.3734   0.14074   0.13818  -0.0322  1.0000  0.0268  -1.7826   0.0000   0.0000   0.0000   0.1455
 -12.900  -0.3709   0.13953   0.13697  -0.0326  1.0000  0.0271  -1.7742   0.0000   0.0000   0.0000   0.1438
 -12.800  -0.3688   0.13823   0.13567  -0.0332  1.0000  0.0275  -1.7725   0.0000   0.0000   0.0000   0.1420
 -12.700  -0.3671   0.13680   0.13425  -0.0337  1.0000  0.0280  -1.7815   0.0000   0.0000   0.0000   0.1400
 -12.600  -0.3838   0.13164   0.12911  -0.0384  1.0000  0.0291  -2.1514   0.0000   0.0000   0.0000   0.1320
 -12.500  -0.3847   0.12952   0.12700  -0.0393  1.0000  0.0292  -2.2076   0.0000   0.0000   0.0000   0.1300
 -12.400  -0.3805   0.12858   0.12606  -0.0390  1.0000  0.0293  -2.1564   0.0000   0.0000   0.0000   0.1297
 -12.300  -0.3761   0.12771   0.12519  -0.0388  1.0000  0.0293  -2.1084   0.0000   0.0000   0.0000   0.1291
 -12.200  -0.3715   0.12689   0.12437  -0.0387  1.0000  0.0294  -2.0602   0.0000   0.0000   0.0000   0.1283
 -12.100  -0.3672   0.12604   0.12352  -0.0386  1.0000  0.0295  -2.0180   0.0000   0.0000   0.0000   0.1274
 -12.000  -0.3635   0.12514   0.12263  -0.0386  1.0000  0.0297  -1.9835   0.0000   0.0000   0.0000   0.1263
 -11.900  -0.3602   0.12420   0.12169  -0.0387  1.0000  0.0298  -1.9554   0.0000   0.0000   0.0000   0.1252
 -11.800  -0.3573   0.12320   0.12069  -0.0389  1.0000  0.0300  -1.9328   0.0000   0.0000   0.0000   0.1239
 -11.600  -0.6879   0.05167   0.04895  -0.0762  1.0000  0.0222  -6.6800   0.0000   0.0000   0.0000   0.1243
 -11.500  -0.7025   0.04939   0.04667  -0.0769  1.0000  0.0221  -6.7716   0.0000   0.0000   0.0000   0.1260
 -11.400  -0.7167   0.04806   0.04536  -0.0765  1.0000  0.0220  -6.8303   0.0000   0.0000   0.0000   0.1292
 -11.300  -0.7305   0.04723   0.04454  -0.0753  1.0000  0.0220  -6.8727   0.0000   0.0000   0.0000   0.1332
 -11.200  -0.7441   0.04583   0.04309  -0.0745  1.0000  0.0219  -6.9345   0.0000   0.0000   0.0000   0.1366
 -11.100  -0.7556   0.04262   0.03972  -0.0768  0.9988  0.0219  -7.0450   0.0000   0.0000   0.0000   0.1352
 -11.000  -0.7575   0.03818   0.03491  -0.0820  0.9962  0.0220  -7.1547   0.0000   0.0000   0.0000   0.1288
 -10.900  -0.7544   0.03540   0.03181  -0.0848  0.9943  0.0222  -7.1851   0.0000   0.0000   0.0000   0.1247
 -10.800  -0.7501   0.03323   0.02942  -0.0864  0.9923  0.0223  -7.1805   0.0000   0.0000   0.0000   0.1219
 -10.700  -0.7421   0.03186   0.02796  -0.0875  0.9909  0.0225  -7.1181   0.0000   0.0000   0.0000   0.1193
 -10.600  -0.7316   0.03101   0.02707  -0.0885  0.9899  0.0227  -7.0299   0.0000   0.0000   0.0000   0.1164
 -10.500  -0.7202   0.03033   0.02636  -0.0894  0.9891  0.0228  -6.9320   0.0000   0.0000   0.0000   0.1132
 -10.400  -0.7083   0.02971   0.02569  -0.0904  0.9883  0.0230  -6.8320   0.0000   0.0000   0.0000   0.1098
 -10.300  -0.6962   0.02907   0.02499  -0.0914  0.9877  0.0232  -6.7346   0.0000   0.0000   0.0000   0.1061
 -10.200  -0.6838   0.02844   0.02430  -0.0924  0.9871  0.0234  -6.6371   0.0000   0.0000   0.0000   0.1023
 -10.100  -0.6746   0.02783   0.02364  -0.0927  0.9851  0.0236  -6.5567   0.0000   0.0000   0.0000   0.1002
 -10.000  -0.6642   0.02713   0.02285  -0.0933  0.9836  0.0239  -6.4763   0.0000   0.0000   0.0000   0.0971
  -9.900  -0.6532   0.02637   0.02198  -0.0940  0.9824  0.0241  -6.3989   0.0000   0.0000   0.0000   0.0937
  -9.800  -0.6419   0.02556   0.02104  -0.0948  0.9813  0.0244  -6.3236   0.0000   0.0000   0.0000   0.0899
  -9.700  -0.6301   0.02474   0.02009  -0.0956  0.9804  0.0247  -6.2491   0.0000   0.0000   0.0000   0.0859
  -9.600  -0.6179   0.02398   0.01916  -0.0964  0.9796  0.0250  -6.1727   0.0000   0.0000   0.0000   0.0815
  -9.500  -0.6050   0.02333   0.01836  -0.0973  0.9789  0.0253  -6.0901   0.0000   0.0000   0.0000   0.0767
  -9.400  -0.5925   0.02255   0.01744  -0.0982  0.9783  0.0256  -6.0098   0.0000   0.0000   0.0000   0.0717
  -9.300  -0.5796   0.02189   0.01678  -0.0991  0.9779  0.0260  -5.9105   0.0000   0.0000   0.0000   0.0665
  -9.200  -0.5703   0.02158   0.01647  -0.0990  0.9755  0.0262  -5.8180   0.0000   0.0000   0.0000   0.0640
  -9.100  -0.5584   0.02129   0.01617  -0.0993  0.9740  0.0265  -5.7140   0.0000   0.0000   0.0000   0.0596
  -9.000  -0.5456   0.02098   0.01584  -0.0999  0.9728  0.0269  -5.6093   0.0000   0.0000   0.0000   0.0544
  -8.900  -0.5324   0.02063   0.01544  -0.1006  0.9719  0.0272  -5.5076   0.0000   0.0000   0.0000   0.0485
  -8.800  -0.5189   0.02025   0.01500  -0.1013  0.9711  0.0276  -5.4080   0.0000   0.0000   0.0000   0.0421
  -8.700  -0.5052   0.01982   0.01449  -0.1021  0.9704  0.0280  -5.3123   0.0000   0.0000   0.0000   0.0352
  -8.600  -0.4912   0.01938   0.01396  -0.1029  0.9698  0.0284  -5.2181   0.0000   0.0000   0.0000   0.0277
  -8.500  -0.4768   0.01898   0.01346  -0.1038  0.9692  0.0288  -5.1232   0.0000   0.0000   0.0000   0.0195
  -8.400  -0.4623   0.01859   0.01297  -0.1046  0.9687  0.0292  -5.0335   0.0000   0.0000   0.0000   0.0107
  -8.300  -0.4489   0.01791   0.01228  -0.1055  0.9682  0.0296  -4.9499   0.0000   0.0000   0.0000   0.0019
  -8.200  -0.4346   0.01757   0.01195  -0.1063  0.9677  0.0301  -4.8507   0.0000   0.0000   0.0000  -0.0078
  -8.100  -0.4245   0.01735   0.01173  -0.1062  0.9652  0.0304  -4.7666   0.0000   0.0000   0.0000  -0.0134
  -8.000  -0.4128   0.01713   0.01149  -0.1064  0.9631  0.0309  -4.6777   0.0000   0.0000   0.0000  -0.0211
  -7.900  -0.3998   0.01688   0.01121  -0.1069  0.9616  0.0314  -4.5863   0.0000   0.0000   0.0000  -0.0308
  -7.800  -0.3864   0.01662   0.01090  -0.1074  0.9603  0.0320  -4.4965   0.0000   0.0000   0.0000  -0.0416
  -7.700  -0.3727   0.01635   0.01056  -0.1080  0.9591  0.0326  -4.4082   0.0000   0.0000   0.0000  -0.0536
  -7.600  -0.3588   0.01611   0.01025  -0.1085  0.9580  0.0331  -4.3204   0.0000   0.0000   0.0000  -0.0665
  -7.500  -0.3461   0.01559   0.00971  -0.1090  0.9570  0.0337  -4.2416   0.0000   0.0000   0.0000  -0.0792
  -7.400  -0.3351   0.01529   0.00942  -0.1091  0.9549  0.0342  -4.1599   0.0000   0.0000   0.0000  -0.0900
  -7.300  -0.3254   0.01509   0.00922  -0.1088  0.9518  0.0346  -4.0821   0.0000   0.0000   0.0000  -0.0990
  -7.200  -0.3139   0.01489   0.00901  -0.1089  0.9497  0.0352  -3.9989   0.0000   0.0000   0.0000  -0.1116
  -7.100  -0.3020   0.01468   0.00878  -0.1091  0.9480  0.0358  -3.9160   0.0000   0.0000   0.0000  -0.1261
  -7.000  -0.2897   0.01448   0.00854  -0.1093  0.9466  0.0365  -3.8333   0.0000   0.0000   0.0000  -0.1425
  -6.900  -0.2772   0.01429   0.00830  -0.1095  0.9453  0.0372  -3.7512   0.0000   0.0000   0.0000  -0.1607
  -6.800  -0.2661   0.01416   0.00812  -0.1095  0.9432  0.0378  -3.6738   0.0000   0.0000   0.0000  -0.1774
  -6.700  -0.2575   0.01377   0.00774  -0.1091  0.9400  0.0385  -3.6088   0.0000   0.0000   0.0000  -0.1898
  -6.600  -0.2468   0.01357   0.00755  -0.1090  0.9376  0.0392  -3.5326   0.0000   0.0000   0.0000  -0.2083
  -6.500  -0.2354   0.01340   0.00738  -0.1091  0.9357  0.0400  -3.4574   0.0000   0.0000   0.0000  -0.2303
  -6.400  -0.2237   0.01324   0.00720  -0.1091  0.9339  0.0408  -3.3835   0.0000   0.0000   0.0000  -0.2552
  -6.300  -0.2119   0.01307   0.00699  -0.1092  0.9324  0.0416  -3.3113   0.0000   0.0000   0.0000  -0.2832
  -6.200  -0.2023   0.01294   0.00683  -0.1089  0.9290  0.0424  -3.2469   0.0000   0.0000   0.0000  -0.3065
  -6.100  -0.1919   0.01275   0.00660  -0.1087  0.9261  0.0431  -3.1816   0.0000   0.0000   0.0000  -0.3351
  -6.000  -0.1814   0.01247   0.00634  -0.1086  0.9237  0.0441  -3.1141   0.0000   0.0000   0.0000  -0.3679
  -5.900  -0.1702   0.01232   0.00619  -0.1086  0.9216  0.0451  -3.0414   0.0000   0.0000   0.0000  -0.4082
  -5.800  -0.1587   0.01219   0.00605  -0.1086  0.9198  0.0462  -2.9691   0.0000   0.0000   0.0000  -0.4557
  -5.700  -0.1487   0.01208   0.00592  -0.1083  0.9163  0.0472  -2.9036   0.0000   0.0000   0.0000  -0.5006
  -5.600  -0.1379   0.01198   0.00578  -0.1082  0.9133  0.0482  -2.8368   0.0000   0.0000   0.0000  -0.5576
  -5.500  -0.1273   0.01174   0.00553  -0.1081  0.9107  0.0494  -2.7731   0.0000   0.0000   0.0000  -0.6233
  -5.400  -0.1164   0.01155   0.00535  -0.1080  0.9085  0.0506  -2.7053   0.0000   0.0000   0.0000  -0.7045
  -5.300  -0.1055   0.01143   0.00523  -0.1079  0.9057  0.0518  -2.6373   0.0000   0.0000   0.0000  -0.8011
  -5.200  -0.0950   0.01134   0.00512  -0.1077  0.9022  0.0532  -2.5736   0.0000   0.0000   0.0000  -0.9147
  -5.100  -0.0840   0.01125   0.00500  -0.1076  0.8991  0.0546  -2.5120   0.0000   0.0000   0.0000  -1.0645
  -5.000  -0.0732   0.01105   0.00479  -0.1075  0.8965  0.0561  -2.4529   0.0000   0.0000   0.0000  -1.2570
  -4.900  -0.0622   0.01090   0.00465  -0.1075  0.8939  0.0577  -2.3911   0.0000   0.0000   0.0000  -1.5211
  -4.800  -0.0517   0.01081   0.00456  -0.1073  0.8901  0.0594  -2.3307   0.0000   0.0000   0.0000  -1.8773
  -4.700  -0.0407   0.01072   0.00445  -0.1072  0.8868  0.0611  -2.2704   0.0000   0.0000   0.0000  -2.4433
  -4.600  -0.0296   0.01063   0.00432  -0.1071  0.8840  0.0628  -2.2104   0.0000   0.0000   0.0000  -3.4568
  -4.500  -0.0187   0.01045   0.00415  -0.1071  0.8813  0.0651  -2.1516   0.0000   0.0000   0.0000  -5.6031
  -4.400  -0.0081   0.01036   0.00407  -0.1069  0.8773  0.0672  -2.0924   0.0000   0.0000   0.0000  -13.2956
  -4.300   0.0029   0.01029   0.00394  -0.1068  0.8738  0.0694  -2.0345   0.0000   0.0000   0.0000  37.6441
  -4.200   0.0140   0.01017   0.00383  -0.1068  0.8707  0.0717  -1.9806   0.0000   0.0000   0.0000   8.0242
  -4.100   0.0249   0.01004   0.00373  -0.1067  0.8674  0.0744  -1.9263   0.0000   0.0000   0.0000   4.6243
  -4.000   0.0357   0.00997   0.00365  -0.1066  0.8633  0.0771  -1.8722   0.0000   0.0000   0.0000   3.2925
  -3.900   0.0469   0.00992   0.00356  -0.1065  0.8598  0.0796  -1.8180   0.0000   0.0000   0.0000   2.5643
  -3.800   0.0579   0.00977   0.00343  -0.1064  0.8568  0.0832  -1.7651   0.0000   0.0000   0.0000   2.1227
  -3.700   0.0687   0.00970   0.00336  -0.1063  0.8526  0.0865  -1.7122   0.0000   0.0000   0.0000   1.8249
  -3.600   0.0798   0.00965   0.00329  -0.1063  0.8487  0.0898  -1.6594   0.0000   0.0000   0.0000   1.6047
  -3.500   0.0907   0.00953   0.00318  -0.1062  0.8452  0.0940  -1.6079   0.0000   0.0000   0.0000   1.4396
  -3.400   0.1018   0.00947   0.00311  -0.1061  0.8414  0.0981  -1.5589   0.0000   0.0000   0.0000   1.3090
  -3.300   0.1127   0.00939   0.00303  -0.1060  0.8371  0.1024  -1.5112   0.0000   0.0000   0.0000   1.2054
  -3.200   0.1237   0.00931   0.00296  -0.1060  0.8332  0.1073  -1.4629   0.0000   0.0000   0.0000   1.1191
  -3.100   0.1348   0.00926   0.00289  -0.1059  0.8295  0.1121  -1.4150   0.0000   0.0000   0.0000   1.0464
  -3.000   0.1457   0.00917   0.00283  -0.1058  0.8249  0.1177  -1.3680   0.0000   0.0000   0.0000   0.9862
  -2.900   0.1568   0.00913   0.00277  -0.1057  0.8208  0.1232  -1.3208   0.0000   0.0000   0.0000   0.9331
  -2.800   0.1678   0.00905   0.00271  -0.1057  0.8170  0.1296  -1.2741   0.0000   0.0000   0.0000   0.8876
  -2.700   0.1787   0.00900   0.00266  -0.1056  0.8122  0.1360  -1.2296   0.0000   0.0000   0.0000   0.8477
  -2.600   0.1897   0.00893   0.00260  -0.1056  0.8079  0.1430  -1.1866   0.0000   0.0000   0.0000   0.8125
  -2.500   0.2008   0.00888   0.00255  -0.1055  0.8038  0.1502  -1.1438   0.0000   0.0000   0.0000   0.7809
  -2.400   0.2117   0.00882   0.00251  -0.1054  0.7989  0.1581  -1.1015   0.0000   0.0000   0.0000   0.7528
  -2.300   0.2227   0.00877   0.00246  -0.1053  0.7945  0.1662  -1.0594   0.0000   0.0000   0.0000   0.7274
  -2.200   0.2337   0.00873   0.00242  -0.1053  0.7900  0.1747  -1.0197   0.0000   0.0000   0.0000   0.7043
  -2.100   0.2446   0.00868   0.00239  -0.1052  0.7850  0.1839  -0.9809   0.0000   0.0000   0.0000   0.6835
  -2.000   0.2556   0.00863   0.00235  -0.1051  0.7806  0.1934  -0.9425   0.0000   0.0000   0.0000   0.6644
  -1.900   0.2666   0.00858   0.00232  -0.1051  0.7758  0.2032  -0.9043   0.0000   0.0000   0.0000   0.6468
  -1.800   0.2775   0.00854   0.00229  -0.1050  0.7707  0.2135  -0.8666   0.0000   0.0000   0.0000   0.6307
  -1.700   0.2885   0.00851   0.00226  -0.1049  0.7663  0.2247  -0.8311   0.0000   0.0000   0.0000   0.6157
  -1.600   0.2994   0.00846   0.00224  -0.1049  0.7609  0.2361  -0.7963   0.0000   0.0000   0.0000   0.6020
  -1.500   0.3103   0.00842   0.00221  -0.1048  0.7560  0.2480  -0.7618   0.0000   0.0000   0.0000   0.5892
  -1.400   0.3212   0.00838   0.00219  -0.1047  0.7511  0.2606  -0.7276   0.0000   0.0000   0.0000   0.5772
  -1.300   0.3321   0.00834   0.00217  -0.1047  0.7457  0.2739  -0.6940   0.0000   0.0000   0.0000   0.5661
  -1.100   0.3538   0.00826   0.00214  -0.1045  0.7354  0.3032  -0.6822   0.0000   0.0000   0.0000   0.5459
  -1.000   0.3646   0.00823   0.00212  -0.1044  0.7302  0.3196  -0.6901   0.0000   0.0000   0.0000   0.5367
  -0.900   0.3754   0.00817   0.00211  -0.1044  0.7250  0.3373  -0.6981   0.0000   0.0000   0.0000   0.5281
  -0.800   0.3861   0.00812   0.00210  -0.1043  0.7195  0.3577  -0.7060   0.0000   0.0000   0.0000   0.5199
  -0.700   0.3967   0.00806   0.00208  -0.1042  0.7146  0.3820  -0.7139   0.0000   0.0000   0.0000   0.5123
  -0.600   0.4073   0.00795   0.00208  -0.1041  0.7089  0.4149  -0.7218   0.0000   0.0000   0.0000   0.5051
  -0.500   0.4175   0.00782   0.00208  -0.1040  0.7036  0.4658  -0.7296   0.0000   0.0000   0.0000   0.4984
  -0.400   0.4275   0.00765   0.00210  -0.1038  0.6982  0.5303  -0.7375   0.0000   0.0000   0.0000   0.4920
  -0.300   0.4373   0.00750   0.00212  -0.1035  0.6927  0.5939  -0.7453   0.0000   0.0000   0.0000   0.4858
  -0.200   0.4468   0.00736   0.00214  -0.1032  0.6877  0.6533  -0.7531   0.0000   0.0000   0.0000   0.4798
  -0.100   0.4560   0.00722   0.00217  -0.1027  0.6821  0.7118  -0.7606   0.0000   0.0000   0.0000   0.4740
   0.000   0.4645   0.00709   0.00220  -0.1020  0.6771  0.7702  -0.7679   0.0000   0.0000   0.0000   0.4682
   0.100   0.4723   0.00695   0.00224  -0.1011  0.6717  0.8288  -0.7751   0.0000   0.0000   0.0000   0.4625
   0.200   0.4798   0.00686   0.00227  -0.1000  0.6664  0.8870  -0.7821   0.0000   0.0000   0.0000   0.4567
   0.300   0.4936   0.00684   0.00229  -0.1002  0.6613  0.9421  -0.7925   0.0000   0.0000   0.0000   0.4513
   0.400   0.5142   0.00685   0.00228  -0.1022  0.6553  0.9763  -0.8065   0.0000   0.0000   0.0000   0.4468
   0.500   0.5343   0.00689   0.00227  -0.1041  0.6498  0.9949  -0.8205   0.0000   0.0000   0.0000   0.4428
   0.600   0.5490   0.00692   0.00226  -0.1049  0.6440  1.0000  -0.8317   0.0000   0.0000   0.0000   0.4389
   0.700   0.5591   0.00698   0.00227  -0.1047  0.6389  1.0000  -0.8403   0.0000   0.0000   0.0000   0.4349
   0.800   0.5693   0.00702   0.00228  -0.1045  0.6337  1.0000  -0.8490   0.0000   0.0000   0.0000   0.4311
   0.900   0.5795   0.00707   0.00229  -0.1042  0.6284  1.0000  -0.8579   0.0000   0.0000   0.0000   0.4274
   1.000   0.5897   0.00713   0.00230  -0.1040  0.6237  1.0000  -0.8669   0.0000   0.0000   0.0000   0.4238
   1.100   0.6001   0.00717   0.00231  -0.1038  0.6184  1.0000  -0.8760   0.0000   0.0000   0.0000   0.4203
   1.200   0.6103   0.00723   0.00232  -0.1036  0.6136  1.0000  -0.8851   0.0000   0.0000   0.0000   0.4170
   1.300   0.6207   0.00728   0.00234  -0.1035  0.6089  1.0000  -0.8943   0.0000   0.0000   0.0000   0.4137
   1.400   0.6311   0.00733   0.00236  -0.1033  0.6040  1.0000  -0.9039   0.0000   0.0000   0.0000   0.4106
   1.500   0.6413   0.00740   0.00238  -0.1031  0.5996  1.0000  -0.9134   0.0000   0.0000   0.0000   0.4076
   1.600   0.6518   0.00744   0.00240  -0.1030  0.5949  1.0000  -0.9230   0.0000   0.0000   0.0000   0.4046
   1.700   0.6623   0.00749   0.00243  -0.1028  0.5903  1.0000  -0.9327   0.0000   0.0000   0.0000   0.4018
   1.800   0.6726   0.00757   0.00245  -0.1026  0.5863  1.0000  -0.9427   0.0000   0.0000   0.0000   0.3990
   1.900   0.6832   0.00761   0.00248  -0.1025  0.5818  1.0000  -0.9528   0.0000   0.0000   0.0000   0.3964
   2.000   0.6937   0.00766   0.00251  -0.1023  0.5775  1.0000  -0.9629   0.0000   0.0000   0.0000   0.3938
   2.100   0.7041   0.00773   0.00254  -0.1022  0.5737  1.0000  -0.9731   0.0000   0.0000   0.0000   0.3913
   2.200   0.7147   0.00778   0.00257  -0.1021  0.5695  1.0000  -0.9837   0.0000   0.0000   0.0000   0.3889
   2.300   0.7253   0.00783   0.00260  -0.1019  0.5654  1.0000  -0.9942   0.0000   0.0000   0.0000   0.3865
   2.400   0.7357   0.00790   0.00263  -0.1018  0.5617  1.0000  -1.0048   0.0000   0.0000   0.0000   0.3842
   2.500   0.7463   0.00796   0.00267  -0.1017  0.5581  1.0000  -1.0158   0.0000   0.0000   0.0000   0.3820
   2.600   0.7570   0.00801   0.00271  -0.1016  0.5541  1.0000  -1.0269   0.0000   0.0000   0.0000   0.3798
   2.700   0.7675   0.00807   0.00275  -0.1014  0.5505  1.0000  -1.0380   0.0000   0.0000   0.0000   0.3777
   2.800   0.7779   0.00815   0.00278  -0.1013  0.5472  1.0000  -1.0494   0.0000   0.0000   0.0000   0.3756
   2.900   0.7888   0.00819   0.00283  -0.1012  0.5435  1.0000  -1.0611   0.0000   0.0000   0.0000   0.3737
   3.000   0.7994   0.00825   0.00287  -0.1011  0.5399  1.0000  -1.0729   0.0000   0.0000   0.0000   0.3717
   3.100   0.8099   0.00832   0.00291  -0.1010  0.5365  1.0000  -1.0850   0.0000   0.0000   0.0000   0.3698
   3.200   0.8204   0.00839   0.00296  -0.1008  0.5334  1.0000  -1.0971   0.0000   0.0000   0.0000   0.3679
   3.300   0.8312   0.00843   0.00300  -0.1008  0.5299  1.0000  -1.1097   0.0000   0.0000   0.0000   0.3661
   3.400   0.8418   0.00849   0.00305  -0.1006  0.5264  1.0000  -1.1225   0.0000   0.0000   0.0000   0.3644
   3.500   0.8523   0.00857   0.00310  -0.1005  0.5233  1.0000  -1.1355   0.0000   0.0000   0.0000   0.3627
   3.600   0.8628   0.00864   0.00315  -0.1004  0.5203  1.0000  -1.1488   0.0000   0.0000   0.0000   0.3610
   3.700   0.8736   0.00868   0.00320  -0.1003  0.5168  1.0000  -1.1627   0.0000   0.0000   0.0000   0.3593
   3.800   0.8842   0.00874   0.00325  -0.1002  0.5135  1.0000  -1.1768   0.0000   0.0000   0.0000   0.3577
   3.900   0.8946   0.00882   0.00330  -0.1001  0.5105  1.0000  -1.1914   0.0000   0.0000   0.0000   0.3562
   4.000   0.9051   0.00889   0.00336  -0.1000  0.5075  1.0000  -1.2067   0.0000   0.0000   0.0000   0.3546
   4.100   0.9159   0.00894   0.00341  -0.0999  0.5041  1.0000  -1.2229   0.0000   0.0000   0.0000   0.3531
   4.200   0.9264   0.00900   0.00347  -0.0998  0.5008  1.0000  -1.2402   0.0000   0.0000   0.0000   0.3516
   4.300   0.9368   0.00908   0.00352  -0.0996  0.4977  1.0000  -1.2597   0.0000   0.0000   0.0000   0.3502
   4.400   0.9473   0.00916   0.00359  -0.0995  0.4947  1.0000  -1.2829   0.0000   0.0000   0.0000   0.3488
   4.500   0.9580   0.00920   0.00365  -0.0994  0.4913  1.0000  -1.3093   0.0000   0.0000   0.0000   0.3474
   4.600   0.9685   0.00926   0.00370  -0.0993  0.4879  1.0000  -1.3373   0.0000   0.0000   0.0000   0.3460
   4.700   0.9788   0.00934   0.00376  -0.0991  0.4847  1.0000  -1.3671   0.0000   0.0000   0.0000   0.3447
   4.800   0.9892   0.00942   0.00383  -0.0990  0.4815  1.0000  -1.3981   0.0000   0.0000   0.0000   0.3434
   4.900   0.9998   0.00947   0.00389  -0.0989  0.4778  1.0000  -1.4314   0.0000   0.0000   0.0000   0.3421
   5.000   1.0101   0.00954   0.00396  -0.0987  0.4741  1.0000  -1.4651   0.0000   0.0000   0.0000   0.3408
   5.100   1.0202   0.00963   0.00402  -0.0985  0.4707  1.0000  -1.4997   0.0000   0.0000   0.0000   0.3395
   5.200   1.0307   0.00968   0.00408  -0.0984  0.4667  1.0000  -1.5372   0.0000   0.0000   0.0000   0.3383
   5.300   1.0410   0.00974   0.00415  -0.0983  0.4625  1.0000  -1.5747   0.0000   0.0000   0.0000   0.3371
   5.400   1.0510   0.00984   0.00421  -0.0981  0.4585  1.0000  -1.6120   0.0000   0.0000   0.0000   0.3359
   5.500   1.0612   0.00990   0.00428  -0.0979  0.4542  1.0000  -1.6520   0.0000   0.0000   0.0000   0.3347
   5.600   1.0715   0.00996   0.00435  -0.0977  0.4495  1.0000  -1.6922   0.0000   0.0000   0.0000   0.3336
   5.700   1.0812   0.01006   0.00442  -0.0975  0.4453  1.0000  -1.7339   0.0000   0.0000   0.0000   0.3324
   5.800   1.0916   0.01012   0.00449  -0.0974  0.4407  1.0000  -1.7770   0.0000   0.0000   0.0000   0.3313
   5.900   1.1017   0.01019   0.00456  -0.0972  0.4360  1.0000  -1.8200   0.0000   0.0000   0.0000   0.3302
   6.000   1.1113   0.01030   0.00464  -0.0969  0.4318  1.0000  -1.8646   0.0000   0.0000   0.0000   0.3291
   6.100   1.1217   0.01035   0.00471  -0.0968  0.4272  1.0000  -1.9111   0.0000   0.0000   0.0000   0.3280
   6.200   1.1317   0.01043   0.00479  -0.0966  0.4224  1.0000  -1.9570   0.0000   0.0000   0.0000   0.3270
   6.300   1.1413   0.01053   0.00487  -0.0963  0.4181  1.0000  -2.0027   0.0000   0.0000   0.0000   0.3259
   6.400   1.1516   0.01059   0.00494  -0.0962  0.4130  1.0000  -2.0514   0.0000   0.0000   0.0000   0.3249
   6.500   1.1613   0.01068   0.00502  -0.0959  0.4080  1.0000  -2.1002   0.0000   0.0000   0.0000   0.3238
   6.600   1.1712   0.01076   0.00511  -0.0957  0.4031  1.0000  -2.1499   0.0000   0.0000   0.0000   0.3228
   6.700   1.1811   0.01085   0.00519  -0.0955  0.3975  1.0000  -2.1999   0.0000   0.0000   0.0000   0.3218
   6.800   1.1905   0.01095   0.00528  -0.0952  0.3922  1.0000  -2.2517   0.0000   0.0000   0.0000   0.3208
   6.900   1.2004   0.01103   0.00537  -0.0950  0.3860  1.0000  -2.3050   0.0000   0.0000   0.0000   0.3199
   7.000   1.2096   0.01115   0.00546  -0.0947  0.3801  1.0000  -2.3572   0.0000   0.0000   0.0000   0.3189
   7.100   1.2193   0.01124   0.00556  -0.0945  0.3732  1.0000  -2.4109   0.0000   0.0000   0.0000   0.3179
   7.200   1.2284   0.01137   0.00566  -0.0941  0.3666  1.0000  -2.4635   0.0000   0.0000   0.0000   0.3169
   7.300   1.2376   0.01149   0.00576  -0.0938  0.3592  1.0000  -2.5183   0.0000   0.0000   0.0000   0.3160
   7.400   1.2467   0.01162   0.00587  -0.0935  0.3516  1.0000  -2.5743   0.0000   0.0000   0.0000   0.3150
   7.500   1.2552   0.01178   0.00600  -0.0930  0.3437  1.0000  -2.6291   0.0000   0.0000   0.0000   0.3140
   7.600   1.2641   0.01192   0.00612  -0.0927  0.3350  1.0000  -2.6854   0.0000   0.0000   0.0000   0.3131
   7.700   1.2726   0.01208   0.00626  -0.0923  0.3260  1.0000  -2.7410   0.0000   0.0000   0.0000   0.3121
   7.800   1.2808   0.01226   0.00640  -0.0918  0.3166  1.0000  -2.7960   0.0000   0.0000   0.0000   0.3111
   7.900   1.2886   0.01247   0.00655  -0.0913  0.3068  1.0000  -2.8505   0.0000   0.0000   0.0000   0.3102
   8.000   1.2965   0.01267   0.00672  -0.0907  0.2962  1.0000  -2.9052   0.0000   0.0000   0.0000   0.3092
   8.100   1.3041   0.01289   0.00689  -0.0902  0.2851  1.0000  -2.9610   0.0000   0.0000   0.0000   0.3082
   8.200   1.3114   0.01312   0.00707  -0.0896  0.2736  1.0000  -3.0176   0.0000   0.0000   0.0000   0.3072
   8.300   1.3184   0.01337   0.00727  -0.0890  0.2616  1.0000  -3.0736   0.0000   0.0000   0.0000   0.3063
   8.400   1.3251   0.01364   0.00748  -0.0883  0.2494  1.0000  -3.1291   0.0000   0.0000   0.0000   0.3053
   8.500   1.3315   0.01393   0.00770  -0.0876  0.2368  1.0000  -3.1837   0.0000   0.0000   0.0000   0.3043
   8.600   1.3376   0.01424   0.00794  -0.0868  0.2239  1.0000  -3.2375   0.0000   0.0000   0.0000   0.3032
   8.700   1.3434   0.01456   0.00819  -0.0860  0.2108  1.0000  -3.2909   0.0000   0.0000   0.0000   0.3022
   8.800   1.3490   0.01489   0.00844  -0.0851  0.1976  1.0000  -3.3437   0.0000   0.0000   0.0000   0.3012
   8.900   1.3542   0.01522   0.00871  -0.0842  0.1847  1.0000  -3.3957   0.0000   0.0000   0.0000   0.3001
   9.000   1.3587   0.01557   0.00899  -0.0832  0.1724  1.0000  -3.4468   0.0000   0.0000   0.0000   0.2990
   9.100   1.3627   0.01591   0.00927  -0.0821  0.1606  1.0000  -3.4979   0.0000   0.0000   0.0000   0.2979
   9.200   1.3667   0.01627   0.00956  -0.0810  0.1493  1.0000  -3.5490   0.0000   0.0000   0.0000   0.2967
   9.300   1.3706   0.01664   0.00987  -0.0799  0.1385  1.0000  -3.6000   0.0000   0.0000   0.0000   0.2956
   9.400   1.3745   0.01702   0.01019  -0.0788  0.1285  1.0000  -3.6510   0.0000   0.0000   0.0000   0.2945
   9.500   1.3783   0.01740   0.01051  -0.0777  0.1192  1.0000  -3.7019   0.0000   0.0000   0.0000   0.2934
   9.600   1.3819   0.01779   0.01085  -0.0766  0.1106  1.0000  -3.7525   0.0000   0.0000   0.0000   0.2923
   9.700   1.3860   0.01816   0.01118  -0.0756  0.1027  1.0000  -3.8049   0.0000   0.0000   0.0000   0.2913
   9.800   1.3901   0.01853   0.01152  -0.0746  0.0958  1.0000  -3.8573   0.0000   0.0000   0.0000   0.2902
   9.900   1.3938   0.01893   0.01188  -0.0735  0.0896  1.0000  -3.9084   0.0000   0.0000   0.0000   0.2892
  10.000   1.3979   0.01931   0.01224  -0.0726  0.0838  1.0000  -3.9610   0.0000   0.0000   0.0000   0.2882
  10.100   1.4020   0.01969   0.01260  -0.0716  0.0789  1.0000  -4.0137   0.0000   0.0000   0.0000   0.2872
  10.200   1.4058   0.02009   0.01297  -0.0706  0.0744  1.0000  -4.0657   0.0000   0.0000   0.0000   0.2862
  10.300   1.4099   0.02048   0.01335  -0.0697  0.0706  1.0000  -4.1211   0.0000   0.0000   0.0000   0.2853
  10.400   1.4140   0.02087   0.01373  -0.0688  0.0670  1.0000  -4.1771   0.0000   0.0000   0.0000   0.2843
  10.500   1.4172   0.02132   0.01416  -0.0678  0.0639  1.0000  -4.2298   0.0000   0.0000   0.0000   0.2834
  10.600   1.4220   0.02167   0.01453  -0.0671  0.0612  1.0000  -4.2890   0.0000   0.0000   0.0000   0.2825
  10.700   1.4257   0.02210   0.01495  -0.0662  0.0586  1.0000  -4.3440   0.0000   0.0000   0.0000   0.2816
  10.800   1.4285   0.02259   0.01543  -0.0652  0.0563  1.0000  -4.3953   0.0000   0.0000   0.0000   0.2806
  10.900   1.4334   0.02295   0.01582  -0.0645  0.0543  1.0000  -4.4554   0.0000   0.0000   0.0000   0.2798
  11.000   1.4373   0.02338   0.01625  -0.0636  0.0524  1.0000  -4.5117   0.0000   0.0000   0.0000   0.2790
  11.100   1.4401   0.02389   0.01676  -0.0627  0.0507  1.0000  -4.5638   0.0000   0.0000   0.0000   0.2781
  11.200   1.4430   0.02441   0.01728  -0.0619  0.0491  1.0000  -4.6156   0.0000   0.0000   0.0000   0.2772
  11.300   1.4476   0.02480   0.01771  -0.0612  0.0477  1.0000  -4.6751   0.0000   0.0000   0.0000   0.2764
  11.400   1.4513   0.02527   0.01819  -0.0604  0.0463  1.0000  -4.7315   0.0000   0.0000   0.0000   0.2756
  11.500   1.4543   0.02580   0.01872  -0.0596  0.0450  1.0000  -4.7848   0.0000   0.0000   0.0000   0.2748
  11.600   1.4557   0.02645   0.01937  -0.0587  0.0439  1.0000  -4.8313   0.0000   0.0000   0.0000   0.2740
  11.700   1.4588   0.02699   0.01994  -0.0580  0.0428  1.0000  -4.8843   0.0000   0.0000   0.0000   0.2732
  11.800   1.4630   0.02745   0.02044  -0.0573  0.0418  1.0000  -4.9426   0.0000   0.0000   0.0000   0.2725
  11.900   1.4666   0.02796   0.02097  -0.0567  0.0407  1.0000  -4.9993   0.0000   0.0000   0.0000   0.2717
  12.000   1.4695   0.02854   0.02156  -0.0560  0.0398  1.0000  -5.0529   0.0000   0.0000   0.0000   0.2710
  12.100   1.4713   0.02921   0.02224  -0.0553  0.0390  1.0000  -5.1022   0.0000   0.0000   0.0000   0.2703
  12.200   1.4714   0.03003   0.02307  -0.0544  0.0382  1.0000  -5.1436   0.0000   0.0000   0.0000   0.2695
  12.300   1.4737   0.03068   0.02375  -0.0538  0.0374  1.0000  -5.1966   0.0000   0.0000   0.0000   0.2688
  12.400   1.4773   0.03124   0.02435  -0.0532  0.0367  1.0000  -5.2562   0.0000   0.0000   0.0000   0.2682
  12.500   1.4803   0.03185   0.02499  -0.0527  0.0360  1.0000  -5.3134   0.0000   0.0000   0.0000   0.2675
  12.600   1.4831   0.03250   0.02567  -0.0521  0.0353  1.0000  -5.3697   0.0000   0.0000   0.0000   0.2669
  12.700   1.4853   0.03320   0.02639  -0.0516  0.0347  1.0000  -5.4240   0.0000   0.0000   0.0000   0.2663
  12.800   1.4865   0.03399   0.02720  -0.0510  0.0341  1.0000  -5.4738   0.0000   0.0000   0.0000   0.2657
  12.900   1.4865   0.03491   0.02813  -0.0503  0.0336  1.0000  -5.5168   0.0000   0.0000   0.0000   0.2651
  13.000   1.4846   0.03601   0.02926  -0.0497  0.0331  1.0000  -5.5495   0.0000   0.0000   0.0000   0.2644
  13.100   1.4868   0.03677   0.03005  -0.0492  0.0326  1.0000  -5.6022   0.0000   0.0000   0.0000   0.2639
  13.200   1.4895   0.03747   0.03080  -0.0488  0.0321  1.0000  -5.6586   0.0000   0.0000   0.0000   0.2634
  13.300   1.4918   0.03824   0.03161  -0.0484  0.0316  1.0000  -5.7123   0.0000   0.0000   0.0000   0.2628
  13.400   1.4936   0.03905   0.03245  -0.0480  0.0311  1.0000  -5.7649   0.0000   0.0000   0.0000   0.2623
  13.500   1.4952   0.03989   0.03332  -0.0476  0.0306  1.0000  -5.8162   0.0000   0.0000   0.0000   0.2618
  13.600   1.4964   0.04078   0.03423  -0.0472  0.0302  1.0000  -5.8663   0.0000   0.0000   0.0000   0.2614
  13.700   1.4970   0.04174   0.03522  -0.0469  0.0298  1.0000  -5.9128   0.0000   0.0000   0.0000   0.2609
  13.800   1.4965   0.04282   0.03632  -0.0465  0.0294  1.0000  -5.9538   0.0000   0.0000   0.0000   0.2604
  13.900   1.4949   0.04404   0.03756  -0.0461  0.0291  1.0000  -5.9879   0.0000   0.0000   0.0000   0.2600
  14.000   1.4918   0.04543   0.03898  -0.0457  0.0287  1.0000  -6.0130   0.0000   0.0000   0.0000   0.2596
  14.100   1.4916   0.04654   0.04012  -0.0454  0.0284  1.0000  -6.0529   0.0000   0.0000   0.0000   0.2592
  14.200   1.4932   0.04746   0.04110  -0.0452  0.0281  1.0000  -6.1029   0.0000   0.0000   0.0000   0.2588
  14.300   1.4944   0.04845   0.04213  -0.0450  0.0278  1.0000  -6.1503   0.0000   0.0000   0.0000   0.2584
  14.400   1.4951   0.04949   0.04321  -0.0448  0.0274  1.0000  -6.1960   0.0000   0.0000   0.0000   0.2581
  14.500   1.4957   0.05056   0.04432  -0.0446  0.0271  1.0000  -6.2411   0.0000   0.0000   0.0000   0.2577
  14.600   1.4961   0.05167   0.04546  -0.0445  0.0268  1.0000  -6.2854   0.0000   0.0000   0.0000   0.2574
  14.700   1.4964   0.05279   0.04662  -0.0444  0.0265  1.0000  -6.3293   0.0000   0.0000   0.0000   0.2571
  14.800   1.4965   0.05396   0.04781  -0.0443  0.0262  1.0000  -6.3723   0.0000   0.0000   0.0000   0.2568
  14.900   1.4963   0.05516   0.04904  -0.0442  0.0259  1.0000  -6.4140   0.0000   0.0000   0.0000   0.2565
  15.000   1.4957   0.05641   0.05032  -0.0441  0.0257  1.0000  -6.4535   0.0000   0.0000   0.0000   0.2563


