xflr5 v6.61

 Calculated polar for: NACA 4412

 1 1 Reynolds number fixed          Mach number fixed         

 xtrf =   1.000 (top)        1.000 (bottom)
 Mach =   0.000     Re =     1.300 e 6     Ncrit =   9.000

  alpha     CL        CD       CDp       Cm    Top Xtr Bot Xtr   Cpmin    Chinge    XCp    
 ------- -------- --------- --------- -------- ------- ------- -------- --------- ---------
 -15.000  -0.8398   0.07410   0.07188  -0.0635  1.0000  0.0135  -9.4369   0.0000   0.0000   0.0000   0.1536
 -14.900  -0.8683   0.06821   0.06593  -0.0675  1.0000  0.0134  -9.7773   0.0000   0.0000   0.0000   0.1519
 -14.800  -0.9070   0.06075   0.05839  -0.0729  1.0000  0.0133  -10.2353   0.0000   0.0000   0.0000   0.1499
 -14.700  -1.0372   0.03450   0.03166  -0.0977  1.0000  0.0128  -11.8999   0.0000   0.0000   0.0000   0.1375
 -14.600  -1.0555   0.03329   0.03041  -0.0955  1.0000  0.0127  -11.9954   0.0000   0.0000   0.0000   0.1415
 -14.500  -1.0635   0.03237   0.02943  -0.0941  1.0000  0.0127  -12.0060   0.0000   0.0000   0.0000   0.1438
 -14.400  -1.0697   0.03160   0.02863  -0.0927  1.0000  0.0128  -11.9991   0.0000   0.0000   0.0000   0.1459
 -14.300  -1.0745   0.03093   0.02792  -0.0912  1.0000  0.0128  -11.9789   0.0000   0.0000   0.0000   0.1479
 -14.200  -1.0780   0.03032   0.02727  -0.0897  1.0000  0.0128  -11.9478   0.0000   0.0000   0.0000   0.1498
 -14.100  -1.0730   0.02959   0.02649  -0.0899  0.9997  0.0129  -11.8593   0.0000   0.0000   0.0000   0.1494
 -14.000  -1.0640   0.02883   0.02568  -0.0908  0.9991  0.0130  -11.7428   0.0000   0.0000   0.0000   0.1480
 -13.900  -1.0547   0.02811   0.02492  -0.0916  0.9985  0.0130  -11.6243   0.0000   0.0000   0.0000   0.1466
 -13.800  -1.0450   0.02743   0.02419  -0.0924  0.9979  0.0131  -11.5034   0.0000   0.0000   0.0000   0.1451
 -13.700  -1.0351   0.02679   0.02350  -0.0932  0.9973  0.0132  -11.3807   0.0000   0.0000   0.0000   0.1437
 -13.600  -1.0250   0.02618   0.02284  -0.0939  0.9968  0.0133  -11.2564   0.0000   0.0000   0.0000   0.1422
 -13.500  -1.0146   0.02559   0.02220  -0.0947  0.9963  0.0134  -11.1305   0.0000   0.0000   0.0000   0.1406
 -13.400  -1.0040   0.02503   0.02159  -0.0954  0.9958  0.0135  -11.0032   0.0000   0.0000   0.0000   0.1390
 -13.300  -0.9931   0.02449   0.02100  -0.0961  0.9955  0.0136  -10.8747   0.0000   0.0000   0.0000   0.1374
 -13.200  -0.9825   0.02398   0.02045  -0.0967  0.9950  0.0137  -10.7476   0.0000   0.0000   0.0000   0.1358
 -13.100  -0.9726   0.02350   0.01992  -0.0971  0.9942  0.0137  -10.6251   0.0000   0.0000   0.0000   0.1345
 -13.000  -0.9622   0.02305   0.01942  -0.0976  0.9933  0.0138  -10.4998   0.0000   0.0000   0.0000   0.1331
 -12.900  -0.9514   0.02261   0.01893  -0.0980  0.9926  0.0139  -10.3722   0.0000   0.0000   0.0000   0.1316
 -12.800  -0.9404   0.02221   0.01848  -0.0985  0.9919  0.0140  -10.2424   0.0000   0.0000   0.0000   0.1299
 -12.700  -0.9290   0.02182   0.01806  -0.0990  0.9913  0.0141  -10.1106   0.0000   0.0000   0.0000   0.1282
 -12.600  -0.9174   0.02147   0.01766  -0.0996  0.9907  0.0141  -9.9770   0.0000   0.0000   0.0000   0.1264
 -12.500  -0.9056   0.02114   0.01728  -0.1001  0.9902  0.0142  -9.8420   0.0000   0.0000   0.0000   0.1245
 -12.400  -0.8963   0.02024   0.01630  -0.1008  0.9895  0.0144  -9.7463   0.0000   0.0000   0.0000   0.1227
 -12.300  -0.8854   0.01965   0.01568  -0.1014  0.9890  0.0145  -9.6267   0.0000   0.0000   0.0000   0.1207
 -12.200  -0.8737   0.01921   0.01521  -0.1020  0.9886  0.0147  -9.4970   0.0000   0.0000   0.0000   0.1185
 -12.100  -0.8616   0.01885   0.01482  -0.1026  0.9883  0.0148  -9.3625   0.0000   0.0000   0.0000   0.1163
 -12.000  -0.8492   0.01853   0.01448  -0.1032  0.9880  0.0149  -9.2314   0.0000   0.0000   0.0000   0.1139
 -11.900  -0.8366   0.01823   0.01416  -0.1038  0.9877  0.0151  -9.1000   0.0000   0.0000   0.0000   0.1114
 -11.800  -0.8239   0.01795   0.01386  -0.1044  0.9874  0.0152  -8.9685   0.0000   0.0000   0.0000   0.1088
 -11.700  -0.8111   0.01767   0.01355  -0.1051  0.9872  0.0153  -8.8376   0.0000   0.0000   0.0000   0.1061
 -11.600  -0.8001   0.01742   0.01327  -0.1053  0.9862  0.0155  -8.7177   0.0000   0.0000   0.0000   0.1041
 -11.500  -0.7890   0.01718   0.01300  -0.1055  0.9850  0.0156  -8.5981   0.0000   0.0000   0.0000   0.1021
 -11.400  -0.7775   0.01694   0.01274  -0.1058  0.9840  0.0158  -8.4760   0.0000   0.0000   0.0000   0.0998
 -11.300  -0.7656   0.01670   0.01248  -0.1061  0.9832  0.0159  -8.3534   0.0000   0.0000   0.0000   0.0973
 -11.200  -0.7537   0.01647   0.01222  -0.1065  0.9823  0.0161  -8.2309   0.0000   0.0000   0.0000   0.0947
 -11.100  -0.7416   0.01625   0.01197  -0.1068  0.9815  0.0162  -8.1087   0.0000   0.0000   0.0000   0.0920
 -11.000  -0.7294   0.01604   0.01172  -0.1072  0.9808  0.0164  -7.9861   0.0000   0.0000   0.0000   0.0891
 -10.900  -0.7171   0.01584   0.01149  -0.1076  0.9801  0.0165  -7.8637   0.0000   0.0000   0.0000   0.0861
 -10.800  -0.7048   0.01566   0.01127  -0.1079  0.9794  0.0166  -7.7417   0.0000   0.0000   0.0000   0.0830
 -10.700  -0.6940   0.01520   0.01077  -0.1083  0.9785  0.0168  -7.6400   0.0000   0.0000   0.0000   0.0802
 -10.600  -0.6833   0.01482   0.01037  -0.1084  0.9774  0.0170  -7.5348   0.0000   0.0000   0.0000   0.0776
 -10.500  -0.6745   0.01458   0.01011  -0.1081  0.9752  0.0172  -7.4343   0.0000   0.0000   0.0000   0.0760
 -10.400  -0.6642   0.01436   0.00988  -0.1081  0.9734  0.0174  -7.3252   0.0000   0.0000   0.0000   0.0737
 -10.300  -0.6534   0.01417   0.00967  -0.1081  0.9718  0.0175  -7.2135   0.0000   0.0000   0.0000   0.0710
 -10.200  -0.6425   0.01399   0.00947  -0.1081  0.9704  0.0177  -7.1016   0.0000   0.0000   0.0000   0.0682
 -10.100  -0.6316   0.01381   0.00928  -0.1082  0.9690  0.0179  -6.9905   0.0000   0.0000   0.0000   0.0653
 -10.000  -0.6205   0.01364   0.00908  -0.1082  0.9679  0.0181  -6.8793   0.0000   0.0000   0.0000   0.0621
  -9.900  -0.6106   0.01348   0.00891  -0.1081  0.9658  0.0183  -6.7750   0.0000   0.0000   0.0000   0.0596
  -9.800  -0.6007   0.01333   0.00873  -0.1078  0.9635  0.0185  -6.6719   0.0000   0.0000   0.0000   0.0572
  -9.700  -0.5905   0.01317   0.00855  -0.1077  0.9614  0.0187  -6.5680   0.0000   0.0000   0.0000   0.0544
  -9.600  -0.5802   0.01302   0.00837  -0.1075  0.9595  0.0189  -6.4639   0.0000   0.0000   0.0000   0.0514
  -9.500  -0.5696   0.01288   0.00820  -0.1074  0.9578  0.0190  -6.3590   0.0000   0.0000   0.0000   0.0481
  -9.400  -0.5589   0.01275   0.00804  -0.1074  0.9561  0.0192  -6.2538   0.0000   0.0000   0.0000   0.0446
  -9.300  -0.5489   0.01262   0.00788  -0.1071  0.9533  0.0193  -6.1532   0.0000   0.0000   0.0000   0.0416
  -9.200  -0.5399   0.01228   0.00752  -0.1069  0.9504  0.0196  -6.0651   0.0000   0.0000   0.0000   0.0389
  -9.100  -0.5301   0.01207   0.00729  -0.1067  0.9478  0.0199  -5.9678   0.0000   0.0000   0.0000   0.0356
  -9.000  -0.5197   0.01191   0.00711  -0.1065  0.9454  0.0202  -5.8696   0.0000   0.0000   0.0000   0.0319
  -8.900  -0.5094   0.01178   0.00696  -0.1064  0.9427  0.0204  -5.7733   0.0000   0.0000   0.0000   0.0281
  -8.800  -0.4991   0.01166   0.00683  -0.1062  0.9395  0.0207  -5.6776   0.0000   0.0000   0.0000   0.0241
  -8.700  -0.4887   0.01154   0.00670  -0.1061  0.9366  0.0210  -5.5821   0.0000   0.0000   0.0000   0.0199
  -8.600  -0.4781   0.01143   0.00656  -0.1059  0.9341  0.0213  -5.4870   0.0000   0.0000   0.0000   0.0153
  -8.500  -0.4673   0.01132   0.00642  -0.1058  0.9319  0.0216  -5.3924   0.0000   0.0000   0.0000   0.0104
  -8.400  -0.4566   0.01121   0.00630  -0.1058  0.9293  0.0218  -5.2988   0.0000   0.0000   0.0000   0.0052
  -8.300  -0.4458   0.01111   0.00617  -0.1057  0.9267  0.0220  -5.2055   0.0000   0.0000   0.0000  -0.0003
  -8.200  -0.4349   0.01102   0.00606  -0.1056  0.9243  0.0222  -5.1122   0.0000   0.0000   0.0000  -0.0061
  -8.100  -0.4248   0.01076   0.00578  -0.1055  0.9220  0.0227  -5.0289   0.0000   0.0000   0.0000  -0.0116
  -7.900  -0.4034   0.01048   0.00547  -0.1054  0.9172  0.0234  -4.8479   0.0000   0.0000   0.0000  -0.0246
  -7.800  -0.3925   0.01037   0.00535  -0.1053  0.9145  0.0237  -4.7564   0.0000   0.0000   0.0000  -0.0317
  -7.700  -0.3816   0.01027   0.00523  -0.1052  0.9119  0.0241  -4.6655   0.0000   0.0000   0.0000  -0.0393
  -7.600  -0.3707   0.01018   0.00512  -0.1052  0.9094  0.0245  -4.5756   0.0000   0.0000   0.0000  -0.0474
  -7.500  -0.3598   0.01009   0.00500  -0.1051  0.9071  0.0248  -4.4862   0.0000   0.0000   0.0000  -0.0559
  -7.400  -0.3487   0.01000   0.00490  -0.1051  0.9043  0.0252  -4.3972   0.0000   0.0000   0.0000  -0.0653
  -7.300  -0.3376   0.00993   0.00481  -0.1051  0.9015  0.0254  -4.3082   0.0000   0.0000   0.0000  -0.0752
  -7.200  -0.3269   0.00975   0.00461  -0.1050  0.8988  0.0260  -4.2252   0.0000   0.0000   0.0000  -0.0853
  -7.100  -0.3161   0.00962   0.00447  -0.1049  0.8962  0.0266  -4.1394   0.0000   0.0000   0.0000  -0.0962
  -7.000  -0.3051   0.00953   0.00437  -0.1049  0.8937  0.0271  -4.0522   0.0000   0.0000   0.0000  -0.1082
  -6.900  -0.2940   0.00945   0.00428  -0.1049  0.8907  0.0276  -3.9651   0.0000   0.0000   0.0000  -0.1214
  -6.800  -0.2829   0.00937   0.00419  -0.1048  0.8877  0.0281  -3.8792   0.0000   0.0000   0.0000  -0.1355
  -6.700  -0.2718   0.00930   0.00409  -0.1048  0.8847  0.0285  -3.7969   0.0000   0.0000   0.0000  -0.1507
  -6.500  -0.2497   0.00913   0.00388  -0.1047  0.8789  0.0295  -3.6409   0.0000   0.0000   0.0000  -0.1852
  -6.400  -0.2388   0.00900   0.00374  -0.1047  0.8756  0.0302  -3.5648   0.0000   0.0000   0.0000  -0.2045
  -6.300  -0.2277   0.00891   0.00364  -0.1046  0.8725  0.0309  -3.4871   0.0000   0.0000   0.0000  -0.2260
  -6.200  -0.2166   0.00884   0.00356  -0.1046  0.8696  0.0315  -3.4096   0.0000   0.0000   0.0000  -0.2497
  -6.100  -0.2054   0.00878   0.00348  -0.1046  0.8665  0.0321  -3.3322   0.0000   0.0000   0.0000  -0.2767
  -6.000  -0.1942   0.00872   0.00341  -0.1046  0.8632  0.0328  -3.2555   0.0000   0.0000   0.0000  -0.3066
  -5.900  -0.1830   0.00867   0.00333  -0.1045  0.8599  0.0333  -3.1799   0.0000   0.0000   0.0000  -0.3400
  -5.800  -0.1721   0.00855   0.00320  -0.1045  0.8568  0.0344  -3.1075   0.0000   0.0000   0.0000  -0.3765
  -5.700  -0.1609   0.00847   0.00312  -0.1045  0.8534  0.0353  -3.0328   0.0000   0.0000   0.0000  -0.4195
  -5.600  -0.1497   0.00840   0.00305  -0.1045  0.8498  0.0361  -2.9586   0.0000   0.0000   0.0000  -0.4690
  -5.500  -0.1385   0.00835   0.00297  -0.1044  0.8462  0.0369  -2.8852   0.0000   0.0000   0.0000  -0.5261
  -5.400  -0.1273   0.00831   0.00291  -0.1044  0.8429  0.0376  -2.8124   0.0000   0.0000   0.0000  -0.5935
  -5.300  -0.1162   0.00822   0.00280  -0.1044  0.8392  0.0387  -2.7417   0.0000   0.0000   0.0000  -0.6738
  -5.200  -0.1050   0.00814   0.00273  -0.1044  0.8354  0.0399  -2.6725   0.0000   0.0000   0.0000  -0.7707
  -5.100  -0.0939   0.00809   0.00266  -0.1043  0.8319  0.0410  -2.6056   0.0000   0.0000   0.0000  -0.8904
  -5.000  -0.0826   0.00804   0.00260  -0.1043  0.8284  0.0420  -2.5389   0.0000   0.0000   0.0000  -1.0454
  -4.900  -0.0713   0.00801   0.00255  -0.1043  0.8245  0.0429  -2.4726   0.0000   0.0000   0.0000  -1.2502
  -4.800  -0.0603   0.00792   0.00245  -0.1043  0.8206  0.0446  -2.4091   0.0000   0.0000   0.0000  -1.5227
  -4.700  -0.0491   0.00786   0.00239  -0.1043  0.8169  0.0460  -2.3447   0.0000   0.0000   0.0000  -1.9225
  -4.600  -0.0378   0.00781   0.00234  -0.1043  0.8128  0.0473  -2.2802   0.0000   0.0000   0.0000  -2.5702
  -4.500  -0.0266   0.00779   0.00228  -0.1042  0.8086  0.0484  -2.2165   0.0000   0.0000   0.0000  -3.7594
  -4.400  -0.0155   0.00772   0.00221  -0.1042  0.8048  0.0503  -2.1547   0.0000   0.0000   0.0000  -6.6060
  -4.300  -0.0043   0.00766   0.00215  -0.1042  0.8006  0.0522  -2.0930   0.0000   0.0000   0.0000  -24.7843
  -4.200   0.0070   0.00762   0.00210  -0.1042  0.7963  0.0539  -2.0347   0.0000   0.0000   0.0000  15.5032
  -4.100   0.0181   0.00761   0.00206  -0.1041  0.7923  0.0553  -1.9771   0.0000   0.0000   0.0000   6.1085
  -4.000   0.0294   0.00753   0.00200  -0.1042  0.7880  0.0579  -1.9204   0.0000   0.0000   0.0000   3.8629
  -3.900   0.0406   0.00749   0.00195  -0.1041  0.7835  0.0601  -1.8637   0.0000   0.0000   0.0000   2.8643
  -3.800   0.0517   0.00747   0.00191  -0.1041  0.7792  0.0620  -1.8076   0.0000   0.0000   0.0000   2.2991
  -3.700   0.0630   0.00742   0.00185  -0.1041  0.7747  0.0647  -1.7520   0.0000   0.0000   0.0000   1.9308
  -3.600   0.0742   0.00737   0.00181  -0.1041  0.7700  0.0675  -1.6969   0.0000   0.0000   0.0000   1.6769
  -3.500   0.0853   0.00735   0.00177  -0.1041  0.7656  0.0700  -1.6423   0.0000   0.0000   0.0000   1.4891
  -3.400   0.0966   0.00731   0.00173  -0.1041  0.7609  0.0730  -1.5909   0.0000   0.0000   0.0000   1.3437
  -3.300   0.1077   0.00727   0.00169  -0.1040  0.7561  0.0763  -1.5407   0.0000   0.0000   0.0000   1.2300
  -3.200   0.1190   0.00725   0.00165  -0.1040  0.7516  0.0792  -1.4907   0.0000   0.0000   0.0000   1.1368
  -3.100   0.1302   0.00721   0.00162  -0.1040  0.7467  0.0831  -1.4413   0.0000   0.0000   0.0000   1.0598
  -3.000   0.1413   0.00719   0.00158  -0.1040  0.7418  0.0870  -1.3924   0.0000   0.0000   0.0000   0.9956
  -2.900   0.1526   0.00716   0.00155  -0.1040  0.7370  0.0903  -1.3436   0.0000   0.0000   0.0000   0.9400
  -2.800   0.1637   0.00712   0.00152  -0.1040  0.7319  0.0950  -1.2957   0.0000   0.0000   0.0000   0.8925
  -2.700   0.1748   0.00711   0.00149  -0.1039  0.7271  0.0991  -1.2481   0.0000   0.0000   0.0000   0.8511
  -2.600   0.1861   0.00707   0.00146  -0.1039  0.7220  0.1040  -1.2037   0.0000   0.0000   0.0000   0.8144
  -2.500   0.1972   0.00705   0.00144  -0.1039  0.7169  0.1090  -1.1599   0.0000   0.0000   0.0000   0.7822
  -2.400   0.2084   0.00703   0.00141  -0.1039  0.7120  0.1140  -1.1164   0.0000   0.0000   0.0000   0.7532
  -2.300   0.2196   0.00701   0.00139  -0.1039  0.7066  0.1198  -1.0733   0.0000   0.0000   0.0000   0.7272
  -2.200   0.2307   0.00700   0.00137  -0.1038  0.7015  0.1251  -1.0322   0.0000   0.0000   0.0000   0.7039
  -2.100   0.2419   0.00696   0.00135  -0.1038  0.6963  0.1315  -0.9923   0.0000   0.0000   0.0000   0.6825
  -2.000   0.2530   0.00696   0.00133  -0.1038  0.6910  0.1372  -0.9531   0.0000   0.0000   0.0000   0.6632
  -1.900   0.2642   0.00693   0.00132  -0.1038  0.6859  0.1441  -0.9142   0.0000   0.0000   0.0000   0.6454
  -1.800   0.2754   0.00692   0.00130  -0.1038  0.6804  0.1507  -0.8756   0.0000   0.0000   0.0000   0.6291
  -1.700   0.2864   0.00691   0.00129  -0.1038  0.6753  0.1579  -0.8389   0.0000   0.0000   0.0000   0.6141
  -1.600   0.2976   0.00688   0.00128  -0.1038  0.6698  0.1653  -0.8032   0.0000   0.0000   0.0000   0.6002
  -1.500   0.3087   0.00688   0.00127  -0.1037  0.6644  0.1726  -0.7682   0.0000   0.0000   0.0000   0.5873
  -1.400   0.3199   0.00686   0.00126  -0.1037  0.6593  0.1812  -0.7332   0.0000   0.0000   0.0000   0.5753
  -1.300   0.3310   0.00685   0.00125  -0.1037  0.6537  0.1891  -0.6987   0.0000   0.0000   0.0000   0.5641
  -1.200   0.3421   0.00684   0.00125  -0.1037  0.6486  0.1979  -0.6759   0.0000   0.0000   0.0000   0.5537
  -1.100   0.3533   0.00682   0.00124  -0.1037  0.6430  0.2071  -0.6838   0.0000   0.0000   0.0000   0.5439
  -1.000   0.3643   0.00683   0.00124  -0.1037  0.6377  0.2160  -0.6917   0.0000   0.0000   0.0000   0.5347
  -0.800   0.3866   0.00680   0.00124  -0.1037  0.6271  0.2360  -0.7081   0.0000   0.0000   0.0000   0.5179
  -0.700   0.3977   0.00679   0.00124  -0.1036  0.6221  0.2465  -0.7163   0.0000   0.0000   0.0000   0.5102
  -0.600   0.4088   0.00678   0.00124  -0.1036  0.6166  0.2575  -0.7246   0.0000   0.0000   0.0000   0.5029
  -0.500   0.4198   0.00678   0.00124  -0.1036  0.6115  0.2690  -0.7327   0.0000   0.0000   0.0000   0.4960
  -0.400   0.4311   0.00676   0.00125  -0.1036  0.6064  0.2811  -0.7413   0.0000   0.0000   0.0000   0.4895
  -0.300   0.4421   0.00676   0.00125  -0.1036  0.6011  0.2938  -0.7497   0.0000   0.0000   0.0000   0.4833
  -0.200   0.4532   0.00675   0.00126  -0.1036  0.5963  0.3075  -0.7582   0.0000   0.0000   0.0000   0.4774
  -0.100   0.4643   0.00673   0.00127  -0.1036  0.5911  0.3223  -0.7668   0.0000   0.0000   0.0000   0.4718
   0.100   0.4864   0.00669   0.00129  -0.1036  0.5815  0.3570  -0.7841   0.0000   0.0000   0.0000   0.4613
   0.200   0.4974   0.00666   0.00129  -0.1036  0.5766  0.3779  -0.7929   0.0000   0.0000   0.0000   0.4565
   0.300   0.5082   0.00662   0.00131  -0.1035  0.5720  0.4060  -0.8016   0.0000   0.0000   0.0000   0.4519
   0.400   0.5191   0.00652   0.00132  -0.1036  0.5674  0.4516  -0.8104   0.0000   0.0000   0.0000   0.4475
   0.500   0.5297   0.00642   0.00135  -0.1035  0.5627  0.5050  -0.8191   0.0000   0.0000   0.0000   0.4433
   0.600   0.5404   0.00633   0.00138  -0.1035  0.5585  0.5546  -0.8281   0.0000   0.0000   0.0000   0.4393
   0.700   0.5512   0.00624   0.00140  -0.1034  0.5541  0.6014  -0.8372   0.0000   0.0000   0.0000   0.4353
   0.900   0.5723   0.00610   0.00146  -0.1032  0.5458  0.6880  -0.8551   0.0000   0.0000   0.0000   0.4278
   1.000   0.5827   0.00601   0.00149  -0.1031  0.5417  0.7331  -0.8643   0.0000   0.0000   0.0000   0.4242
   1.100   0.5928   0.00593   0.00152  -0.1028  0.5376  0.7791  -0.8734   0.0000   0.0000   0.0000   0.4207
   1.200   0.6022   0.00585   0.00156  -0.1024  0.5338  0.8265  -0.8821   0.0000   0.0000   0.0000   0.4172
   1.300   0.6109   0.00575   0.00160  -0.1018  0.5302  0.8767  -0.8905   0.0000   0.0000   0.0000   0.4136
   1.400   0.6186   0.00568   0.00164  -0.1008  0.5266  0.9244  -0.8984   0.0000   0.0000   0.0000   0.4099
   1.500   0.6302   0.00568   0.00167  -0.1008  0.5228  0.9624  -0.9089   0.0000   0.0000   0.0000   0.4067
   1.600   0.6475   0.00571   0.00168  -0.1021  0.5190  0.9844  -0.9225   0.0000   0.0000   0.0000   0.4044
   1.700   0.6643   0.00574   0.00170  -0.1034  0.5150  0.9959  -0.9359   0.0000   0.0000   0.0000   0.4022
   1.800   0.6784   0.00578   0.00171  -0.1040  0.5112  1.0000  -0.9481   0.0000   0.0000   0.0000   0.3998
   1.900   0.6890   0.00583   0.00174  -0.1039  0.5080  1.0000  -0.9583   0.0000   0.0000   0.0000   0.3972
   2.000   0.6999   0.00586   0.00175  -0.1039  0.5048  1.0000  -0.9687   0.0000   0.0000   0.0000   0.3946
   2.100   0.7108   0.00590   0.00178  -0.1038  0.5014  1.0000  -0.9792   0.0000   0.0000   0.0000   0.3922
   2.200   0.7215   0.00595   0.00180  -0.1037  0.4982  1.0000  -0.9899   0.0000   0.0000   0.0000   0.3898
   2.300   0.7322   0.00600   0.00182  -0.1036  0.4951  1.0000  -1.0006   0.0000   0.0000   0.0000   0.3874
   2.400   0.7432   0.00603   0.00185  -0.1035  0.4922  1.0000  -1.0116   0.0000   0.0000   0.0000   0.3852
   2.500   0.7541   0.00606   0.00187  -0.1035  0.4891  1.0000  -1.0229   0.0000   0.0000   0.0000   0.3830
   2.600   0.7649   0.00611   0.00190  -0.1034  0.4860  1.0000  -1.0342   0.0000   0.0000   0.0000   0.3808
   2.700   0.7755   0.00617   0.00193  -0.1033  0.4830  1.0000  -1.0454   0.0000   0.0000   0.0000   0.3787
   2.800   0.7866   0.00620   0.00195  -0.1033  0.4803  1.0000  -1.0573   0.0000   0.0000   0.0000   0.3767
   2.900   0.7976   0.00623   0.00198  -0.1032  0.4774  1.0000  -1.0692   0.0000   0.0000   0.0000   0.3747
   3.000   0.8085   0.00628   0.00201  -0.1032  0.4744  1.0000  -1.0812   0.0000   0.0000   0.0000   0.3728
   3.100   0.8192   0.00633   0.00204  -0.1031  0.4715  1.0000  -1.0935   0.0000   0.0000   0.0000   0.3709
   3.200   0.8301   0.00638   0.00207  -0.1030  0.4688  1.0000  -1.1059   0.0000   0.0000   0.0000   0.3691
   3.300   0.8411   0.00641   0.00210  -0.1030  0.4661  1.0000  -1.1189   0.0000   0.0000   0.0000   0.3674
   3.400   0.8521   0.00645   0.00213  -0.1030  0.4632  1.0000  -1.1320   0.0000   0.0000   0.0000   0.3656
   3.500   0.8629   0.00650   0.00217  -0.1029  0.4602  1.0000  -1.1454   0.0000   0.0000   0.0000   0.3639
   3.600   0.8735   0.00656   0.00221  -0.1028  0.4573  1.0000  -1.1588   0.0000   0.0000   0.0000   0.3623
   3.700   0.8847   0.00659   0.00224  -0.1028  0.4547  1.0000  -1.1732   0.0000   0.0000   0.0000   0.3607
   3.800   0.8957   0.00663   0.00227  -0.1028  0.4517  1.0000  -1.1878   0.0000   0.0000   0.0000   0.3591
   3.900   0.9065   0.00668   0.00231  -0.1027  0.4486  1.0000  -1.2029   0.0000   0.0000   0.0000   0.3575
   4.000   0.9171   0.00675   0.00235  -0.1026  0.4454  1.0000  -1.2185   0.0000   0.0000   0.0000   0.3560
   4.100   0.9281   0.00679   0.00239  -0.1026  0.4425  1.0000  -1.2354   0.0000   0.0000   0.0000   0.3546
   4.200   0.9391   0.00683   0.00242  -0.1025  0.4393  1.0000  -1.2539   0.0000   0.0000   0.0000   0.3531
   4.300   0.9499   0.00688   0.00246  -0.1025  0.4358  1.0000  -1.2759   0.0000   0.0000   0.0000   0.3517
   4.400   0.9604   0.00695   0.00251  -0.1024  0.4321  1.0000  -1.3011   0.0000   0.0000   0.0000   0.3503
   4.500   0.9714   0.00699   0.00255  -0.1023  0.4287  1.0000  -1.3293   0.0000   0.0000   0.0000   0.3490
   4.600   0.9822   0.00704   0.00259  -0.1023  0.4246  1.0000  -1.3595   0.0000   0.0000   0.0000   0.3476
   4.700   0.9927   0.00711   0.00263  -0.1022  0.4203  1.0000  -1.3906   0.0000   0.0000   0.0000   0.3463
   4.800   1.0035   0.00717   0.00268  -0.1021  0.4163  1.0000  -1.4239   0.0000   0.0000   0.0000   0.3450
   4.900   1.0143   0.00722   0.00272  -0.1021  0.4117  1.0000  -1.4580   0.0000   0.0000   0.0000   0.3438
   5.000   1.0247   0.00730   0.00277  -0.1019  0.4070  1.0000  -1.4933   0.0000   0.0000   0.0000   0.3425
   5.100   1.0355   0.00735   0.00282  -0.1019  0.4027  1.0000  -1.5313   0.0000   0.0000   0.0000   0.3413
   5.200   1.0462   0.00741   0.00286  -0.1018  0.3976  1.0000  -1.5693   0.0000   0.0000   0.0000   0.3401
   5.300   1.0565   0.00749   0.00292  -0.1017  0.3928  1.0000  -1.6072   0.0000   0.0000   0.0000   0.3389
   5.400   1.0673   0.00755   0.00297  -0.1016  0.3877  1.0000  -1.6480   0.0000   0.0000   0.0000   0.3378
   5.500   1.0776   0.00763   0.00303  -0.1015  0.3821  1.0000  -1.6887   0.0000   0.0000   0.0000   0.3366
   5.600   1.0882   0.00770   0.00308  -0.1014  0.3768  1.0000  -1.7319   0.0000   0.0000   0.0000   0.3355
   5.700   1.0984   0.00779   0.00314  -0.1013  0.3708  1.0000  -1.7750   0.0000   0.0000   0.0000   0.3344
   5.800   1.1088   0.00787   0.00320  -0.1011  0.3651  1.0000  -1.8192   0.0000   0.0000   0.0000   0.3333
   5.900   1.1190   0.00796   0.00327  -0.1010  0.3584  1.0000  -1.8649   0.0000   0.0000   0.0000   0.3322
   6.000   1.1292   0.00805   0.00334  -0.1008  0.3520  1.0000  -1.9111   0.0000   0.0000   0.0000   0.3311
   6.100   1.1391   0.00817   0.00342  -0.1006  0.3447  1.0000  -1.9569   0.0000   0.0000   0.0000   0.3301
   6.200   1.1492   0.00826   0.00349  -0.1005  0.3377  1.0000  -2.0037   0.0000   0.0000   0.0000   0.3290
   6.300   1.1590   0.00839   0.00357  -0.1003  0.3303  1.0000  -2.0516   0.0000   0.0000   0.0000   0.3280
   6.400   1.1688   0.00850   0.00365  -0.1001  0.3222  1.0000  -2.1008   0.0000   0.0000   0.0000   0.3269
   6.500   1.1786   0.00862   0.00374  -0.0998  0.3144  1.0000  -2.1502   0.0000   0.0000   0.0000   0.3259
   6.600   1.1881   0.00877   0.00384  -0.0996  0.3057  1.0000  -2.2001   0.0000   0.0000   0.0000   0.3249
   6.700   1.1974   0.00892   0.00395  -0.0993  0.2961  1.0000  -2.2518   0.0000   0.0000   0.0000   0.3239
   6.800   1.2069   0.00906   0.00405  -0.0990  0.2867  1.0000  -2.3042   0.0000   0.0000   0.0000   0.3229
   6.900   1.2161   0.00922   0.00416  -0.0987  0.2770  1.0000  -2.3564   0.0000   0.0000   0.0000   0.3219
   7.000   1.2251   0.00939   0.00428  -0.0984  0.2667  1.0000  -2.4084   0.0000   0.0000   0.0000   0.3209
   7.100   1.2340   0.00957   0.00441  -0.0981  0.2561  1.0000  -2.4604   0.0000   0.0000   0.0000   0.3199
   7.200   1.2427   0.00976   0.00454  -0.0977  0.2451  1.0000  -2.5151   0.0000   0.0000   0.0000   0.3189
   7.300   1.2512   0.00997   0.00468  -0.0973  0.2337  1.0000  -2.5697   0.0000   0.0000   0.0000   0.3179
   7.400   1.2597   0.01018   0.00484  -0.0969  0.2222  1.0000  -2.6243   0.0000   0.0000   0.0000   0.3169
   7.500   1.2680   0.01039   0.00499  -0.0964  0.2106  1.0000  -2.6789   0.0000   0.0000   0.0000   0.3159
   7.600   1.2761   0.01062   0.00515  -0.0960  0.1989  1.0000  -2.7335   0.0000   0.0000   0.0000   0.3150
   7.700   1.2841   0.01085   0.00532  -0.0955  0.1871  1.0000  -2.7880   0.0000   0.0000   0.0000   0.3140
   7.800   1.2920   0.01109   0.00549  -0.0950  0.1753  1.0000  -2.8424   0.0000   0.0000   0.0000   0.3130
   7.900   1.2998   0.01134   0.00567  -0.0945  0.1637  1.0000  -2.8968   0.0000   0.0000   0.0000   0.3120
   8.000   1.3074   0.01159   0.00585  -0.0939  0.1526  1.0000  -2.9527   0.0000   0.0000   0.0000   0.3111
   8.100   1.3150   0.01183   0.00604  -0.0934  0.1420  1.0000  -3.0101   0.0000   0.0000   0.0000   0.3101
   8.200   1.3224   0.01209   0.00624  -0.0928  0.1318  1.0000  -3.0676   0.0000   0.0000   0.0000   0.3091
   8.300   1.3299   0.01233   0.00643  -0.0922  0.1223  1.0000  -3.1256   0.0000   0.0000   0.0000   0.3082
   8.400   1.3376   0.01257   0.00661  -0.0917  0.1136  1.0000  -3.1843   0.0000   0.0000   0.0000   0.3072
   8.500   1.3451   0.01280   0.00680  -0.0911  0.1057  1.0000  -3.2433   0.0000   0.0000   0.0000   0.3063
   8.600   1.3525   0.01303   0.00699  -0.0906  0.0985  1.0000  -3.3022   0.0000   0.0000   0.0000   0.3053
   8.700   1.3598   0.01327   0.00718  -0.0900  0.0916  1.0000  -3.3610   0.0000   0.0000   0.0000   0.3044
   8.800   1.3676   0.01348   0.00737  -0.0895  0.0858  1.0000  -3.4223   0.0000   0.0000   0.0000   0.3035
   8.900   1.3748   0.01371   0.00756  -0.0889  0.0802  1.0000  -3.4847   0.0000   0.0000   0.0000   0.3026
   9.000   1.3822   0.01393   0.00775  -0.0883  0.0750  1.0000  -3.5482   0.0000   0.0000   0.0000   0.3017
   9.100   1.3895   0.01414   0.00794  -0.0877  0.0705  1.0000  -3.6119   0.0000   0.0000   0.0000   0.3008
   9.200   1.3966   0.01436   0.00813  -0.0871  0.0663  1.0000  -3.6752   0.0000   0.0000   0.0000   0.2998
   9.300   1.4038   0.01456   0.00832  -0.0864  0.0627  1.0000  -3.7392   0.0000   0.0000   0.0000   0.2989
   9.400   1.4105   0.01476   0.00850  -0.0857  0.0594  1.0000  -3.8019   0.0000   0.0000   0.0000   0.2980
   9.500   1.4167   0.01498   0.00869  -0.0849  0.0563  1.0000  -3.8630   0.0000   0.0000   0.0000   0.2970
   9.600   1.4235   0.01516   0.00887  -0.0842  0.0538  1.0000  -3.9271   0.0000   0.0000   0.0000   0.2961
   9.700   1.4296   0.01538   0.00908  -0.0834  0.0512  1.0000  -3.9888   0.0000   0.0000   0.0000   0.2951
   9.800   1.4361   0.01559   0.00928  -0.0827  0.0489  1.0000  -4.0520   0.0000   0.0000   0.0000   0.2942
   9.900   1.4427   0.01578   0.00947  -0.0820  0.0468  1.0000  -4.1188   0.0000   0.0000   0.0000   0.2933
  10.000   1.4487   0.01602   0.00969  -0.0812  0.0447  1.0000  -4.1841   0.0000   0.0000   0.0000   0.2923
  10.100   1.4551   0.01623   0.00990  -0.0804  0.0428  1.0000  -4.2513   0.0000   0.0000   0.0000   0.2914
  10.200   1.4617   0.01643   0.01010  -0.0798  0.0413  1.0000  -4.3202   0.0000   0.0000   0.0000   0.2905
  10.300   1.4678   0.01667   0.01033  -0.0790  0.0396  1.0000  -4.3871   0.0000   0.0000   0.0000   0.2896
  10.400   1.4734   0.01693   0.01058  -0.0782  0.0379  1.0000  -4.4521   0.0000   0.0000   0.0000   0.2887
  10.500   1.4802   0.01712   0.01079  -0.0776  0.0369  1.0000  -4.5229   0.0000   0.0000   0.0000   0.2879
  10.600   1.4866   0.01734   0.01101  -0.0769  0.0357  1.0000  -4.5922   0.0000   0.0000   0.0000   0.2870
  10.700   1.4924   0.01759   0.01126  -0.0761  0.0345  1.0000  -4.6595   0.0000   0.0000   0.0000   0.2862
  10.800   1.4977   0.01788   0.01154  -0.0753  0.0332  1.0000  -4.7247   0.0000   0.0000   0.0000   0.2853
  10.900   1.5041   0.01810   0.01177  -0.0747  0.0324  1.0000  -4.7951   0.0000   0.0000   0.0000   0.2845
  11.000   1.5104   0.01833   0.01201  -0.0740  0.0315  1.0000  -4.8656   0.0000   0.0000   0.0000   0.2837
  11.100   1.5162   0.01859   0.01228  -0.0733  0.0306  1.0000  -4.9343   0.0000   0.0000   0.0000   0.2828
  11.200   1.5215   0.01888   0.01257  -0.0726  0.0297  1.0000  -5.0015   0.0000   0.0000   0.0000   0.2820
  11.300   1.5263   0.01921   0.01290  -0.0717  0.0287  1.0000  -5.0657   0.0000   0.0000   0.0000   0.2811
  11.400   1.5325   0.01945   0.01315  -0.0711  0.0281  1.0000  -5.1372   0.0000   0.0000   0.0000   0.2804
  11.500   1.5386   0.01970   0.01342  -0.0705  0.0275  1.0000  -5.2082   0.0000   0.0000   0.0000   0.2796
  11.600   1.5442   0.01999   0.01371  -0.0698  0.0269  1.0000  -5.2786   0.0000   0.0000   0.0000   0.2788
  11.700   1.5494   0.02030   0.01403  -0.0691  0.0262  1.0000  -5.3502   0.0000   0.0000   0.0000   0.2780
  11.800   1.5542   0.02064   0.01438  -0.0683  0.0256  1.0000  -5.4200   0.0000   0.0000   0.0000   0.2772
  11.900   1.5582   0.02103   0.01477  -0.0675  0.0249  1.0000  -5.4859   0.0000   0.0000   0.0000   0.2764
  12.000   1.5638   0.02133   0.01509  -0.0668  0.0245  1.0000  -5.5596   0.0000   0.0000   0.0000   0.2757
  12.100   1.5695   0.02162   0.01540  -0.0662  0.0240  1.0000  -5.6349   0.0000   0.0000   0.0000   0.2750
  12.200   1.5748   0.02195   0.01574  -0.0656  0.0236  1.0000  -5.7086   0.0000   0.0000   0.0000   0.2742
  12.300   1.5799   0.02229   0.01610  -0.0650  0.0231  1.0000  -5.7813   0.0000   0.0000   0.0000   0.2735
  12.400   1.5844   0.02267   0.01649  -0.0643  0.0226  1.0000  -5.8522   0.0000   0.0000   0.0000   0.2728
  12.500   1.5886   0.02308   0.01691  -0.0635  0.0221  1.0000  -5.9211   0.0000   0.0000   0.0000   0.2720
  12.600   1.5920   0.02355   0.01739  -0.0627  0.0216  1.0000  -5.9861   0.0000   0.0000   0.0000   0.2712
  12.700   1.5960   0.02399   0.01784  -0.0620  0.0212  1.0000  -6.0542   0.0000   0.0000   0.0000   0.2705
  12.800   1.6013   0.02434   0.01822  -0.0615  0.0209  1.0000  -6.1296   0.0000   0.0000   0.0000   0.2699
  12.900   1.6061   0.02472   0.01862  -0.0609  0.0206  1.0000  -6.2032   0.0000   0.0000   0.0000   0.2692
  13.000   1.6107   0.02513   0.01905  -0.0603  0.0203  1.0000  -6.2758   0.0000   0.0000   0.0000   0.2685
  13.100   1.6150   0.02557   0.01950  -0.0597  0.0200  1.0000  -6.3469   0.0000   0.0000   0.0000   0.2678
  13.200   1.6189   0.02603   0.01998  -0.0591  0.0196  1.0000  -6.4167   0.0000   0.0000   0.0000   0.2672
  13.300   1.6225   0.02653   0.02050  -0.0584  0.0193  1.0000  -6.4852   0.0000   0.0000   0.0000   0.2665
  13.400   1.6256   0.02707   0.02105  -0.0578  0.0190  1.0000  -6.5512   0.0000   0.0000   0.0000   0.2658
  13.500   1.6281   0.02768   0.02167  -0.0571  0.0187  1.0000  -6.6132   0.0000   0.0000   0.0000   0.2652
  13.600   1.6296   0.02837   0.02238  -0.0563  0.0183  1.0000  -6.6693   0.0000   0.0000   0.0000   0.2645
  13.700   1.6339   0.02883   0.02287  -0.0558  0.0181  1.0000  -6.7424   0.0000   0.0000   0.0000   0.2639
  13.800   1.6380   0.02933   0.02340  -0.0553  0.0179  1.0000  -6.8138   0.0000   0.0000   0.0000   0.2633
  13.900   1.6418   0.02986   0.02395  -0.0548  0.0177  1.0000  -6.8842   0.0000   0.0000   0.0000   0.2627
  14.000   1.6453   0.03041   0.02452  -0.0543  0.0175  1.0000  -6.9535   0.0000   0.0000   0.0000   0.2621
  14.100   1.6487   0.03098   0.02512  -0.0538  0.0173  1.0000  -7.0226   0.0000   0.0000   0.0000   0.2615
  14.200   1.6518   0.03159   0.02575  -0.0533  0.0171  1.0000  -7.0911   0.0000   0.0000   0.0000   0.2610
  14.300   1.6546   0.03222   0.02640  -0.0528  0.0168  1.0000  -7.1606   0.0000   0.0000   0.0000   0.2604
  14.400   1.6570   0.03290   0.02710  -0.0523  0.0166  1.0000  -7.2280   0.0000   0.0000   0.0000   0.2598
  14.500   1.6590   0.03361   0.02783  -0.0518  0.0164  1.0000  -7.2936   0.0000   0.0000   0.0000   0.2593
  14.600   1.6605   0.03440   0.02863  -0.0513  0.0162  1.0000  -7.3554   0.0000   0.0000   0.0000   0.2587
  14.700   1.6611   0.03526   0.02952  -0.0507  0.0159  1.0000  -7.4122   0.0000   0.0000   0.0000   0.2582
  14.800   1.6607   0.03624   0.03053  -0.0502  0.0157  1.0000  -7.4619   0.0000   0.0000   0.0000   0.2576
  14.900   1.6629   0.03700   0.03131  -0.0498  0.0155  1.0000  -7.5279   0.0000   0.0000   0.0000   0.2571
  15.000   1.6658   0.03769   0.03203  -0.0494  0.0154  1.0000  -7.5986   0.0000   0.0000   0.0000   0.2566


