xflr5 v6.61

 Calculated polar for: NACA 0012

 1 1 Reynolds number fixed          Mach number fixed         

 xtrf =   1.000 (top)        1.000 (bottom)
 Mach =   0.000     Re =     1.500 e 6     Ncrit =   9.000

  alpha     CL        CD       CDp       Cm    Top Xtr Bot Xtr   Cpmin    Chinge    XCp    
 ------- -------- --------- --------- -------- ------- ------- -------- --------- ---------
 -15.000  -1.4546   0.02541   0.02079  -0.0272  1.0000  0.0124  -10.2567   0.0000   0.0000   0.0000   0.2125
 -14.900  -1.4507   0.02500   0.02035  -0.0266  1.0000  0.0125  -10.1744   0.0000   0.0000   0.0000   0.2130
 -14.800  -1.4467   0.02459   0.01992  -0.0260  1.0000  0.0125  -10.0913   0.0000   0.0000   0.0000   0.2136
 -14.700  -1.4424   0.02422   0.01952  -0.0254  1.0000  0.0126  -10.0064   0.0000   0.0000   0.0000   0.2142
 -14.600  -1.4380   0.02387   0.01915  -0.0247  1.0000  0.0127  -9.9205   0.0000   0.0000   0.0000   0.2147
 -14.500  -1.4335   0.02353   0.01878  -0.0241  1.0000  0.0127  -9.8342   0.0000   0.0000   0.0000   0.2153
 -14.400  -1.4288   0.02321   0.01844  -0.0234  1.0000  0.0128  -9.7465   0.0000   0.0000   0.0000   0.2159
 -14.300  -1.4237   0.02291   0.01812  -0.0227  1.0000  0.0128  -9.6568   0.0000   0.0000   0.0000   0.2165
 -14.200  -1.4186   0.02262   0.01781  -0.0220  1.0000  0.0129  -9.5668   0.0000   0.0000   0.0000   0.2171
 -14.100  -1.4134   0.02235   0.01751  -0.0213  1.0000  0.0129  -9.4763   0.0000   0.0000   0.0000   0.2177
 -14.000  -1.4080   0.02209   0.01724  -0.0207  1.0000  0.0130  -9.3846   0.0000   0.0000   0.0000   0.2183
 -13.900  -1.4024   0.02185   0.01697  -0.0200  1.0000  0.0130  -9.2923   0.0000   0.0000   0.0000   0.2189
 -13.800  -1.3967   0.02161   0.01672  -0.0193  1.0000  0.0131  -9.1991   0.0000   0.0000   0.0000   0.2196
 -13.700  -1.3908   0.02139   0.01648  -0.0186  1.0000  0.0131  -9.1049   0.0000   0.0000   0.0000   0.2202
 -13.600  -1.3846   0.02117   0.01625  -0.0179  1.0000  0.0131  -9.0093   0.0000   0.0000   0.0000   0.2207
 -13.500  -1.3794   0.02085   0.01589  -0.0172  1.0000  0.0132  -8.9247   0.0000   0.0000   0.0000   0.2214
 -13.400  -1.3772   0.02026   0.01524  -0.0161  1.0000  0.0135  -8.8692   0.0000   0.0000   0.0000   0.2223
 -13.300  -1.3732   0.01979   0.01471  -0.0152  1.0000  0.0138  -8.7984   0.0000   0.0000   0.0000   0.2231
 -13.200  -1.3678   0.01939   0.01428  -0.0145  1.0000  0.0140  -8.7179   0.0000   0.0000   0.0000   0.2237
 -13.100  -1.3617   0.01905   0.01391  -0.0139  1.0000  0.0143  -8.6306   0.0000   0.0000   0.0000   0.2243
 -13.000  -1.3549   0.01876   0.01359  -0.0133  1.0000  0.0145  -8.5383   0.0000   0.0000   0.0000   0.2248
 -12.900  -1.3476   0.01849   0.01331  -0.0128  1.0000  0.0148  -8.4423   0.0000   0.0000   0.0000   0.2253
 -12.800  -1.3401   0.01824   0.01305  -0.0124  1.0000  0.0150  -8.3439   0.0000   0.0000   0.0000   0.2257
 -12.700  -1.3322   0.01801   0.01281  -0.0120  1.0000  0.0152  -8.2440   0.0000   0.0000   0.0000   0.2261
 -12.600  -1.3242   0.01780   0.01258  -0.0116  1.0000  0.0153  -8.1432   0.0000   0.0000   0.0000   0.2265
 -12.500  -1.3161   0.01759   0.01236  -0.0112  1.0000  0.0155  -8.0419   0.0000   0.0000   0.0000   0.2269
 -12.400  -1.3078   0.01738   0.01215  -0.0108  1.0000  0.0157  -7.9403   0.0000   0.0000   0.0000   0.2273
 -12.300  -1.2994   0.01719   0.01194  -0.0105  1.0000  0.0159  -7.8387   0.0000   0.0000   0.0000   0.2277
 -12.200  -1.2910   0.01700   0.01174  -0.0101  1.0000  0.0161  -7.7370   0.0000   0.0000   0.0000   0.2281
 -12.100  -1.2824   0.01681   0.01155  -0.0098  1.0000  0.0163  -7.6352   0.0000   0.0000   0.0000   0.2284
 -12.000  -1.2737   0.01663   0.01135  -0.0095  1.0000  0.0164  -7.5336   0.0000   0.0000   0.0000   0.2288
 -11.900  -1.2650   0.01645   0.01116  -0.0092  1.0000  0.0166  -7.4323   0.0000   0.0000   0.0000   0.2291
 -11.800  -1.2562   0.01628   0.01098  -0.0089  1.0000  0.0168  -7.3311   0.0000   0.0000   0.0000   0.2295
 -11.700  -1.2473   0.01611   0.01080  -0.0086  1.0000  0.0170  -7.2301   0.0000   0.0000   0.0000   0.2298
 -11.600  -1.2384   0.01595   0.01062  -0.0083  1.0000  0.0171  -7.1291   0.0000   0.0000   0.0000   0.2302
 -11.500  -1.2294   0.01579   0.01044  -0.0080  1.0000  0.0173  -7.0282   0.0000   0.0000   0.0000   0.2305
 -11.400  -1.2203   0.01564   0.01028  -0.0077  1.0000  0.0174  -6.9273   0.0000   0.0000   0.0000   0.2308
 -11.300  -1.2111   0.01550   0.01012  -0.0074  1.0000  0.0176  -6.8264   0.0000   0.0000   0.0000   0.2311
 -11.200  -1.2018   0.01536   0.00998  -0.0071  1.0000  0.0177  -6.7250   0.0000   0.0000   0.0000   0.2315
 -11.100  -1.1925   0.01524   0.00985  -0.0069  1.0000  0.0178  -6.6233   0.0000   0.0000   0.0000   0.2318
 -11.000  -1.1830   0.01513   0.00973  -0.0067  1.0000  0.0179  -6.5214   0.0000   0.0000   0.0000   0.2321
 -10.900  -1.1739   0.01498   0.00957  -0.0064  1.0000  0.0180  -6.4236   0.0000   0.0000   0.0000   0.2324
 -10.800  -1.1668   0.01463   0.00918  -0.0058  1.0000  0.0187  -6.3452   0.0000   0.0000   0.0000   0.2330
 -10.700  -1.1587   0.01437   0.00890  -0.0053  1.0000  0.0193  -6.2585   0.0000   0.0000   0.0000   0.2335
 -10.600  -1.1502   0.01417   0.00869  -0.0049  1.0000  0.0198  -6.1674   0.0000   0.0000   0.0000   0.2340
 -10.500  -1.1414   0.01399   0.00852  -0.0045  1.0000  0.0203  -6.0742   0.0000   0.0000   0.0000   0.2344
 -10.400  -1.1325   0.01383   0.00835  -0.0042  1.0000  0.0207  -5.9806   0.0000   0.0000   0.0000   0.2348
 -10.300  -1.1236   0.01368   0.00820  -0.0038  1.0000  0.0210  -5.8871   0.0000   0.0000   0.0000   0.2352
 -10.200  -1.1146   0.01353   0.00806  -0.0034  1.0000  0.0214  -5.7939   0.0000   0.0000   0.0000   0.2357
 -10.100  -1.1057   0.01340   0.00792  -0.0031  1.0000  0.0217  -5.7013   0.0000   0.0000   0.0000   0.2361
 -10.000  -1.0967   0.01327   0.00778  -0.0027  1.0000  0.0221  -5.6093   0.0000   0.0000   0.0000   0.2366
  -9.900  -1.0878   0.01314   0.00764  -0.0023  1.0000  0.0224  -5.5177   0.0000   0.0000   0.0000   0.2370
  -9.800  -1.0788   0.01302   0.00752  -0.0019  1.0000  0.0227  -5.4268   0.0000   0.0000   0.0000   0.2375
  -9.700  -1.0699   0.01291   0.00740  -0.0015  1.0000  0.0230  -5.3413   0.0000   0.0000   0.0000   0.2380
  -9.600  -1.0610   0.01280   0.00728  -0.0011  1.0000  0.0232  -5.2596   0.0000   0.0000   0.0000   0.2385
  -9.500  -1.0520   0.01270   0.00717  -0.0007  1.0000  0.0234  -5.1780   0.0000   0.0000   0.0000   0.2390
  -9.400  -1.0430   0.01260   0.00706  -0.0003  1.0000  0.0236  -5.0966   0.0000   0.0000   0.0000   0.2395
  -9.300  -1.0340   0.01251   0.00697   0.0001  1.0000  0.0237  -5.0155   0.0000   0.0000   0.0000   0.2400
  -9.200  -1.0253   0.01240   0.00684   0.0005  1.0000  0.0239  -4.9371   0.0000   0.0000   0.0000   0.2405
  -9.100  -1.0176   0.01218   0.00661   0.0012  1.0000  0.0249  -4.8692   0.0000   0.0000   0.0000   0.2413
  -9.000  -1.0096   0.01201   0.00643   0.0017  1.0000  0.0259  -4.7973   0.0000   0.0000   0.0000   0.2420
  -8.900  -1.0013   0.01187   0.00629   0.0023  1.0000  0.0267  -4.7230   0.0000   0.0000   0.0000   0.2427
  -8.800  -0.9930   0.01174   0.00617   0.0028  1.0000  0.0274  -4.6479   0.0000   0.0000   0.0000   0.2433
  -8.700  -0.9846   0.01162   0.00606   0.0033  1.0000  0.0281  -4.5726   0.0000   0.0000   0.0000   0.2440
  -8.600  -0.9761   0.01150   0.00595   0.0038  1.0000  0.0287  -4.4975   0.0000   0.0000   0.0000   0.2446
  -8.500  -0.9676   0.01140   0.00584   0.0043  1.0000  0.0292  -4.4228   0.0000   0.0000   0.0000   0.2453
  -8.400  -0.9591   0.01130   0.00574   0.0048  1.0000  0.0297  -4.3482   0.0000   0.0000   0.0000   0.2460
  -8.300  -0.9505   0.01122   0.00565   0.0053  1.0000  0.0302  -4.2737   0.0000   0.0000   0.0000   0.2467
  -8.200  -0.9419   0.01114   0.00556   0.0058  1.0000  0.0306  -4.1994   0.0000   0.0000   0.0000   0.2474
  -8.100  -0.9332   0.01106   0.00548   0.0063  1.0000  0.0308  -4.1250   0.0000   0.0000   0.0000   0.2480
  -8.000  -0.9244   0.01100   0.00541   0.0068  1.0000  0.0311  -4.0507   0.0000   0.0000   0.0000   0.2487
  -7.900  -0.9165   0.01085   0.00526   0.0074  1.0000  0.0325  -3.9834   0.0000   0.0000   0.0000   0.2495
  -7.800  -0.9061   0.01070   0.00511   0.0075  0.9998  0.0343  -3.9072   0.0000   0.0000   0.0000   0.2498
  -7.700  -0.8933   0.01055   0.00500   0.0070  0.9994  0.0359  -3.8211   0.0000   0.0000   0.0000   0.2496
  -7.600  -0.8803   0.01043   0.00489   0.0066  0.9990  0.0372  -3.7350   0.0000   0.0000   0.0000   0.2493
  -7.500  -0.8672   0.01031   0.00478   0.0061  0.9985  0.0383  -3.6491   0.0000   0.0000   0.0000   0.2489
  -7.400  -0.8541   0.01022   0.00469   0.0056  0.9980  0.0392  -3.5633   0.0000   0.0000   0.0000   0.2486
  -7.300  -0.8408   0.01014   0.00460   0.0051  0.9974  0.0398  -3.4778   0.0000   0.0000   0.0000   0.2482
  -7.200  -0.8274   0.01006   0.00452   0.0046  0.9968  0.0402  -3.3924   0.0000   0.0000   0.0000   0.2478
  -7.100  -0.8144   0.00991   0.00437   0.0042  0.9962  0.0431  -3.3118   0.0000   0.0000   0.0000   0.2474
  -7.000  -0.8013   0.00977   0.00426   0.0037  0.9955  0.0458  -3.2303   0.0000   0.0000   0.0000   0.2470
  -6.900  -0.7882   0.00965   0.00416   0.0032  0.9949  0.0479  -3.1487   0.0000   0.0000   0.0000   0.2465
  -6.800  -0.7748   0.00954   0.00407   0.0026  0.9943  0.0496  -3.0740   0.0000   0.0000   0.0000   0.2460
  -6.700  -0.7612   0.00945   0.00399   0.0021  0.9936  0.0510  -3.0003   0.0000   0.0000   0.0000   0.2454
  -6.600  -0.7476   0.00938   0.00391   0.0015  0.9931  0.0518  -2.9265   0.0000   0.0000   0.0000   0.2448
  -6.500  -0.7341   0.00925   0.00380   0.0010  0.9925  0.0561  -2.8556   0.0000   0.0000   0.0000   0.2441
  -6.400  -0.7207   0.00911   0.00370   0.0004  0.9919  0.0600  -2.7844   0.0000   0.0000   0.0000   0.2435
  -6.300  -0.7070   0.00899   0.00361  -0.0002  0.9914  0.0631  -2.7130   0.0000   0.0000   0.0000   0.2427
  -6.200  -0.6932   0.00890   0.00353  -0.0008  0.9909  0.0653  -2.6415   0.0000   0.0000   0.0000   0.2419
  -6.100  -0.6792   0.00882   0.00345  -0.0014  0.9905  0.0673  -2.5705   0.0000   0.0000   0.0000   0.2410
  -6.000  -0.6654   0.00869   0.00335  -0.0021  0.9900  0.0731  -2.5011   0.0000   0.0000   0.0000   0.2401
  -5.900  -0.6516   0.00856   0.00326  -0.0027  0.9896  0.0777  -2.4319   0.0000   0.0000   0.0000   0.2391
  -5.800  -0.6400   0.00846   0.00318  -0.0028  0.9883  0.0810  -2.3693   0.0000   0.0000   0.0000   0.2389
  -5.700  -0.6280   0.00838   0.00311  -0.0030  0.9869  0.0833  -2.3059   0.0000   0.0000   0.0000   0.2386
  -5.600  -0.6159   0.00828   0.00303  -0.0032  0.9854  0.0888  -2.2431   0.0000   0.0000   0.0000   0.2382
  -5.500  -0.6038   0.00815   0.00294  -0.0035  0.9837  0.0953  -2.1812   0.0000   0.0000   0.0000   0.2378
  -5.400  -0.5915   0.00804   0.00287  -0.0037  0.9819  0.1006  -2.1209   0.0000   0.0000   0.0000   0.2373
  -5.300  -0.5791   0.00796   0.00280  -0.0040  0.9802  0.1040  -2.0650   0.0000   0.0000   0.0000   0.2368
  -5.200  -0.5670   0.00784   0.00272  -0.0042  0.9783  0.1131  -2.0108   0.0000   0.0000   0.0000   0.2363
  -5.100  -0.5546   0.00772   0.00263  -0.0045  0.9764  0.1201  -1.9559   0.0000   0.0000   0.0000   0.2356
  -5.000  -0.5417   0.00763   0.00257  -0.0049  0.9746  0.1247  -1.9005   0.0000   0.0000   0.0000   0.2348
  -4.900  -0.5290   0.00754   0.00250  -0.0053  0.9727  0.1324  -1.8460   0.0000   0.0000   0.0000   0.2340
  -4.800  -0.5165   0.00741   0.00243  -0.0056  0.9706  0.1410  -1.7927   0.0000   0.0000   0.0000   0.2332
  -4.700  -0.5058   0.00733   0.00237  -0.0055  0.9680  0.1470  -1.7434   0.0000   0.0000   0.0000   0.2332
  -4.600  -0.4957   0.00725   0.00231  -0.0052  0.9646  0.1545  -1.6961   0.0000   0.0000   0.0000   0.2336
  -4.500  -0.4855   0.00712   0.00224  -0.0050  0.9609  0.1649  -1.6490   0.0000   0.0000   0.0000   0.2339
  -4.400  -0.4746   0.00704   0.00219  -0.0049  0.9573  0.1720  -1.6005   0.0000   0.0000   0.0000   0.2338
  -4.300  -0.4637   0.00695   0.00212  -0.0048  0.9536  0.1818  -1.5546   0.0000   0.0000   0.0000   0.2338
  -4.200  -0.4528   0.00684   0.00206  -0.0048  0.9497  0.1911  -1.5121   0.0000   0.0000   0.0000   0.2338
  -4.100  -0.4418   0.00678   0.00201  -0.0047  0.9458  0.1973  -1.4695   0.0000   0.0000   0.0000   0.2338
  -4.000  -0.4314   0.00669   0.00196  -0.0045  0.9421  0.2078  -1.4286   0.0000   0.0000   0.0000   0.2340
  -3.900  -0.4210   0.00659   0.00189  -0.0043  0.9378  0.2182  -1.3879   0.0000   0.0000   0.0000   0.2342
  -3.800  -0.4104   0.00653   0.00185  -0.0042  0.9329  0.2265  -1.3470   0.0000   0.0000   0.0000   0.2344
  -3.700  -0.4001   0.00642   0.00179  -0.0040  0.9275  0.2391  -1.3073   0.0000   0.0000   0.0000   0.2347
  -3.600  -0.3896   0.00636   0.00174  -0.0038  0.9220  0.2472  -1.2672   0.0000   0.0000   0.0000   0.2349
  -3.500  -0.3788   0.00629   0.00169  -0.0037  0.9175  0.2568  -1.2281   0.0000   0.0000   0.0000   0.2350
  -3.400  -0.3682   0.00620   0.00165  -0.0035  0.9124  0.2673  -1.1927   0.0000   0.0000   0.0000   0.2351
  -3.300  -0.3574   0.00615   0.00161  -0.0034  0.9065  0.2752  -1.1572   0.0000   0.0000   0.0000   0.2353
  -3.200  -0.3472   0.00606   0.00156  -0.0032  0.8999  0.2890  -1.1230   0.0000   0.0000   0.0000   0.2357
  -3.100  -0.3366   0.00602   0.00151  -0.0030  0.8933  0.2985  -1.0884   0.0000   0.0000   0.0000   0.2360
  -3.000  -0.3257   0.00595   0.00148  -0.0029  0.8880  0.3088  -1.0537   0.0000   0.0000   0.0000   0.2359
  -2.900  -0.3150   0.00588   0.00144  -0.0028  0.8814  0.3191  -1.0199   0.0000   0.0000   0.0000   0.2361
  -2.800  -0.3042   0.00585   0.00140  -0.0027  0.8740  0.3271  -0.9894   0.0000   0.0000   0.0000   0.2363
  -2.700  -0.2939   0.00578   0.00136  -0.0024  0.8664  0.3406  -0.9598   0.0000   0.0000   0.0000   0.2367
  -2.600  -0.2829   0.00573   0.00133  -0.0024  0.8603  0.3509  -0.9294   0.0000   0.0000   0.0000   0.2366
  -2.500  -0.2721   0.00568   0.00129  -0.0023  0.8526  0.3612  -0.8995   0.0000   0.0000   0.0000   0.2367
  -2.400  -0.2615   0.00564   0.00126  -0.0021  0.8443  0.3715  -0.8701   0.0000   0.0000   0.0000   0.2371
  -2.300  -0.2506   0.00562   0.00123  -0.0020  0.8369  0.3799  -0.8435   0.0000   0.0000   0.0000   0.2371
  -2.200  -0.2398   0.00555   0.00120  -0.0019  0.8293  0.3933  -0.8175   0.0000   0.0000   0.0000   0.2372
  -2.100  -0.2290   0.00552   0.00118  -0.0018  0.8203  0.4036  -0.7915   0.0000   0.0000   0.0000   0.2374
  -2.000  -0.2183   0.00550   0.00115  -0.0017  0.8115  0.4133  -0.7658   0.0000   0.0000   0.0000   0.2377
  -1.900  -0.2073   0.00545   0.00113  -0.0016  0.8040  0.4241  -0.7414   0.0000   0.0000   0.0000   0.2376
  -1.800  -0.1964   0.00543   0.00110  -0.0015  0.7948  0.4330  -0.7186   0.0000   0.0000   0.0000   0.2377
  -1.700  -0.1859   0.00540   0.00108  -0.0013  0.7850  0.4457  -0.6964   0.0000   0.0000   0.0000   0.2382
  -1.600  -0.1748   0.00536   0.00106  -0.0013  0.7772  0.4562  -0.6737   0.0000   0.0000   0.0000   0.2380
  -1.500  -0.1639   0.00535   0.00104  -0.0012  0.7674  0.4652  -0.6527   0.0000   0.0000   0.0000   0.2380
  -1.400  -0.1532   0.00533   0.00102  -0.0011  0.7577  0.4764  -0.6332   0.0000   0.0000   0.0000   0.2385
  -1.300  -0.1420   0.00531   0.00101  -0.0010  0.7495  0.4859  -0.6133   0.0000   0.0000   0.0000   0.2382
  -1.200  -0.1313   0.00528   0.00099  -0.0009  0.7392  0.4979  -0.5940   0.0000   0.0000   0.0000   0.2385
  -1.100  -0.1205   0.00527   0.00098  -0.0008  0.7293  0.5084  -0.5763   0.0000   0.0000   0.0000   0.2387
  -1.000  -0.1093   0.00526   0.00097  -0.0008  0.7205  0.5167  -0.5590   0.0000   0.0000   0.0000   0.2384
  -0.900  -0.0986   0.00523   0.00095  -0.0007  0.7102  0.5283  -0.5421   0.0000   0.0000   0.0000   0.2388
  -0.800  -0.0876   0.00523   0.00094  -0.0006  0.7008  0.5384  -0.5252   0.0000   0.0000   0.0000   0.2388
  -0.700  -0.0766   0.00521   0.00094  -0.0005  0.6911  0.5493  -0.5103   0.0000   0.0000   0.0000   0.2387
  -0.600  -0.0659   0.00521   0.00093  -0.0004  0.6799  0.5601  -0.4955   0.0000   0.0000   0.0000   0.2393
  -0.500  -0.0547   0.00521   0.00092  -0.0004  0.6710  0.5681  -0.4805   0.0000   0.0000   0.0000   0.2385
  -0.400  -0.0438   0.00518   0.00091  -0.0003  0.6612  0.5796  -0.4662   0.0000   0.0000   0.0000   0.2388
  -0.200  -0.0218   0.00518   0.00091  -0.0002  0.6413  0.5999  -0.4401   0.0000   0.0000   0.0000   0.2383
  -0.100  -0.0110   0.00518   0.00091  -0.0001  0.6302  0.6111  -0.4272   0.0000   0.0000   0.0000   0.2403
   0.000   0.0000   0.00519   0.00091  -0.0000  0.6200  0.6200  -0.4145   0.0000   0.0000   0.0000   0.4405
   0.100   0.0110   0.00518   0.00091   0.0001  0.6111  0.6302  -0.4272   0.0000   0.0000   0.0000   0.2403
   0.200   0.0218   0.00518   0.00091   0.0002  0.5999  0.6413  -0.4401   0.0000   0.0000   0.0000   0.2383
   0.400   0.0438   0.00518   0.00091   0.0003  0.5796  0.6612  -0.4662   0.0000   0.0000   0.0000   0.2388
   0.500   0.0547   0.00521   0.00092   0.0004  0.5681  0.6710  -0.4805   0.0000   0.0000   0.0000   0.2385
   0.600   0.0659   0.00521   0.00093   0.0004  0.5601  0.6799  -0.4955   0.0000   0.0000   0.0000   0.2393
   0.700   0.0766   0.00521   0.00094   0.0005  0.5493  0.6911  -0.5103   0.0000   0.0000   0.0000   0.2387
   0.800   0.0876   0.00523   0.00094   0.0006  0.5384  0.7008  -0.5252   0.0000   0.0000   0.0000   0.2388
   0.900   0.0986   0.00523   0.00095   0.0007  0.5283  0.7102  -0.5421   0.0000   0.0000   0.0000   0.2388
   1.000   0.1093   0.00526   0.00097   0.0008  0.5167  0.7205  -0.5590   0.0000   0.0000   0.0000   0.2384
   1.100   0.1205   0.00527   0.00098   0.0008  0.5084  0.7293  -0.5763   0.0000   0.0000   0.0000   0.2388
   1.200   0.1313   0.00528   0.00099   0.0009  0.4979  0.7392  -0.5940   0.0000   0.0000   0.0000   0.2385
   1.300   0.1420   0.00531   0.00101   0.0010  0.4859  0.7495  -0.6133   0.0000   0.0000   0.0000   0.2382
   1.400   0.1532   0.00533   0.00102   0.0011  0.4764  0.7577  -0.6332   0.0000   0.0000   0.0000   0.2385
   1.500   0.1639   0.00535   0.00104   0.0012  0.4652  0.7674  -0.6527   0.0000   0.0000   0.0000   0.2381
   1.600   0.1748   0.00536   0.00106   0.0013  0.4562  0.7772  -0.6737   0.0000   0.0000   0.0000   0.2380
   1.700   0.1859   0.00540   0.00108   0.0013  0.4457  0.7850  -0.6964   0.0000   0.0000   0.0000   0.2382
   1.800   0.1964   0.00543   0.00110   0.0015  0.4330  0.7948  -0.7186   0.0000   0.0000   0.0000   0.2377
   1.900   0.2074   0.00545   0.00113   0.0016  0.4241  0.8040  -0.7415   0.0000   0.0000   0.0000   0.2376
   2.000   0.2183   0.00550   0.00115   0.0017  0.4133  0.8115  -0.7658   0.0000   0.0000   0.0000   0.2377
   2.100   0.2290   0.00552   0.00118   0.0018  0.4036  0.8203  -0.7915   0.0000   0.0000   0.0000   0.2374
   2.200   0.2398   0.00554   0.00120   0.0019  0.3933  0.8293  -0.8175   0.0000   0.0000   0.0000   0.2372
   2.300   0.2506   0.00562   0.00123   0.0020  0.3799  0.8369  -0.8435   0.0000   0.0000   0.0000   0.2371
   2.400   0.2615   0.00564   0.00126   0.0021  0.3715  0.8443  -0.8702   0.0000   0.0000   0.0000   0.2371
   2.500   0.2721   0.00568   0.00129   0.0023  0.3612  0.8526  -0.8995   0.0000   0.0000   0.0000   0.2367
   2.600   0.2829   0.00573   0.00133   0.0024  0.3509  0.8603  -0.9294   0.0000   0.0000   0.0000   0.2366
   2.700   0.2939   0.00578   0.00136   0.0024  0.3406  0.8664  -0.9598   0.0000   0.0000   0.0000   0.2367
   2.800   0.3042   0.00585   0.00140   0.0027  0.3271  0.8740  -0.9894   0.0000   0.0000   0.0000   0.2363
   2.900   0.3150   0.00588   0.00144   0.0028  0.3191  0.8814  -1.0199   0.0000   0.0000   0.0000   0.2361
   3.000   0.3257   0.00595   0.00148   0.0029  0.3088  0.8880  -1.0537   0.0000   0.0000   0.0000   0.2360
   3.100   0.3366   0.00602   0.00151   0.0030  0.2985  0.8933  -1.0885   0.0000   0.0000   0.0000   0.2360
   3.200   0.3472   0.00606   0.00156   0.0032  0.2890  0.8999  -1.1230   0.0000   0.0000   0.0000   0.2357
   3.300   0.3574   0.00615   0.00161   0.0034  0.2752  0.9065  -1.1573   0.0000   0.0000   0.0000   0.2353
   3.400   0.3682   0.00620   0.00165   0.0035  0.2673  0.9124  -1.1927   0.0000   0.0000   0.0000   0.2352
   3.500   0.3788   0.00629   0.00169   0.0037  0.2568  0.9175  -1.2281   0.0000   0.0000   0.0000   0.2350
   3.600   0.3896   0.00636   0.00174   0.0038  0.2472  0.9220  -1.2672   0.0000   0.0000   0.0000   0.2350
   3.700   0.4001   0.00642   0.00179   0.0040  0.2390  0.9275  -1.3073   0.0000   0.0000   0.0000   0.2347
   3.800   0.4104   0.00653   0.00185   0.0042  0.2265  0.9329  -1.3471   0.0000   0.0000   0.0000   0.2344
   3.900   0.4210   0.00659   0.00189   0.0043  0.2181  0.9378  -1.3879   0.0000   0.0000   0.0000   0.2342
   4.000   0.4314   0.00669   0.00196   0.0045  0.2078  0.9421  -1.4286   0.0000   0.0000   0.0000   0.2340
   4.100   0.4418   0.00678   0.00201   0.0047  0.1973  0.9458  -1.4695   0.0000   0.0000   0.0000   0.2338
   4.200   0.4528   0.00684   0.00206   0.0048  0.1910  0.9497  -1.5122   0.0000   0.0000   0.0000   0.2338
   4.300   0.4637   0.00695   0.00212   0.0048  0.1817  0.9536  -1.5547   0.0000   0.0000   0.0000   0.2338
   4.400   0.4746   0.00704   0.00219   0.0049  0.1720  0.9573  -1.6006   0.0000   0.0000   0.0000   0.2339
   4.500   0.4855   0.00712   0.00224   0.0050  0.1649  0.9609  -1.6491   0.0000   0.0000   0.0000   0.2339
   4.600   0.4958   0.00725   0.00231   0.0052  0.1545  0.9646  -1.6962   0.0000   0.0000   0.0000   0.2336
   4.700   0.5058   0.00733   0.00237   0.0055  0.1470  0.9680  -1.7435   0.0000   0.0000   0.0000   0.2332
   4.800   0.5166   0.00741   0.00243   0.0056  0.1410  0.9706  -1.7928   0.0000   0.0000   0.0000   0.2332
   4.900   0.5290   0.00754   0.00250   0.0053  0.1324  0.9727  -1.8461   0.0000   0.0000   0.0000   0.2340
   5.000   0.5417   0.00763   0.00257   0.0049  0.1247  0.9746  -1.9005   0.0000   0.0000   0.0000   0.2348
   5.100   0.5546   0.00772   0.00263   0.0045  0.1201  0.9764  -1.9559   0.0000   0.0000   0.0000   0.2356
   5.200   0.5671   0.00784   0.00272   0.0042  0.1131  0.9783  -2.0109   0.0000   0.0000   0.0000   0.2363
   5.300   0.5792   0.00796   0.00280   0.0040  0.1040  0.9802  -2.0651   0.0000   0.0000   0.0000   0.2368
   5.400   0.5916   0.00804   0.00287   0.0037  0.1005  0.9820  -2.1209   0.0000   0.0000   0.0000   0.2373
   5.500   0.6038   0.00815   0.00294   0.0035  0.0953  0.9837  -2.1812   0.0000   0.0000   0.0000   0.2378
   5.600   0.6159   0.00828   0.00303   0.0032  0.0888  0.9854  -2.2432   0.0000   0.0000   0.0000   0.2382
   5.700   0.6280   0.00838   0.00311   0.0030  0.0833  0.9870  -2.3059   0.0000   0.0000   0.0000   0.2386
   5.800   0.6400   0.00846   0.00318   0.0028  0.0810  0.9884  -2.3693   0.0000   0.0000   0.0000   0.2389
   5.900   0.6516   0.00856   0.00326   0.0027  0.0776  0.9896  -2.4321   0.0000   0.0000   0.0000   0.2391
   6.000   0.6655   0.00869   0.00335   0.0021  0.0731  0.9900  -2.5013   0.0000   0.0000   0.0000   0.2401
   6.100   0.6793   0.00882   0.00345   0.0014  0.0673  0.9905  -2.5707   0.0000   0.0000   0.0000   0.2410
   6.200   0.6933   0.00890   0.00353   0.0008  0.0653  0.9909  -2.6417   0.0000   0.0000   0.0000   0.2419
   6.300   0.7071   0.00899   0.00361   0.0002  0.0631  0.9914  -2.7132   0.0000   0.0000   0.0000   0.2427
   6.400   0.7208   0.00911   0.00370  -0.0004  0.0600  0.9919  -2.7846   0.0000   0.0000   0.0000   0.2435
   6.500   0.7342   0.00925   0.00380  -0.0010  0.0561  0.9925  -2.8558   0.0000   0.0000   0.0000   0.2442
   6.600   0.7477   0.00938   0.00391  -0.0015  0.0518  0.9931  -2.9267   0.0000   0.0000   0.0000   0.2448
   6.700   0.7613   0.00945   0.00399  -0.0021  0.0510  0.9937  -3.0005   0.0000   0.0000   0.0000   0.2454
   6.800   0.7749   0.00954   0.00407  -0.0027  0.0496  0.9943  -3.0743   0.0000   0.0000   0.0000   0.2460
   6.900   0.7882   0.00965   0.00416  -0.0032  0.0479  0.9949  -3.1489   0.0000   0.0000   0.0000   0.2465
   7.000   0.8014   0.00977   0.00426  -0.0037  0.0458  0.9956  -3.2306   0.0000   0.0000   0.0000   0.2470
   7.100   0.8145   0.00991   0.00437  -0.0042  0.0431  0.9962  -3.3121   0.0000   0.0000   0.0000   0.2474
   7.200   0.8275   0.01006   0.00452  -0.0046  0.0402  0.9969  -3.3927   0.0000   0.0000   0.0000   0.2478
   7.300   0.8409   0.01013   0.00460  -0.0051  0.0398  0.9975  -3.4781   0.0000   0.0000   0.0000   0.2482
   7.400   0.8541   0.01022   0.00469  -0.0056  0.0392  0.9980  -3.5636   0.0000   0.0000   0.0000   0.2486
   7.500   0.8673   0.01031   0.00478  -0.0061  0.0383  0.9985  -3.6494   0.0000   0.0000   0.0000   0.2490
   7.600   0.8804   0.01042   0.00489  -0.0066  0.0372  0.9990  -3.7353   0.0000   0.0000   0.0000   0.2493
   7.700   0.8934   0.01055   0.00499  -0.0070  0.0359  0.9995  -3.8214   0.0000   0.0000   0.0000   0.2496
   7.800   0.9062   0.01070   0.00511  -0.0075  0.0343  0.9998  -3.9075   0.0000   0.0000   0.0000   0.2499
   7.900   0.9163   0.01085   0.00526  -0.0073  0.0325  1.0000  -3.9827   0.0000   0.0000   0.0000   0.2495
   8.000   0.9243   0.01099   0.00541  -0.0067  0.0311  1.0000  -4.0500   0.0000   0.0000   0.0000   0.2487
   8.100   0.9330   0.01106   0.00548  -0.0063  0.0309  1.0000  -4.1243   0.0000   0.0000   0.0000   0.2480
   8.200   0.9417   0.01113   0.00556  -0.0058  0.0306  1.0000  -4.1986   0.0000   0.0000   0.0000   0.2473
   8.300   0.9503   0.01121   0.00565  -0.0053  0.0302  1.0000  -4.2730   0.0000   0.0000   0.0000   0.2466
   8.400   0.9589   0.01130   0.00574  -0.0048  0.0297  1.0000  -4.3475   0.0000   0.0000   0.0000   0.2460
   8.500   0.9675   0.01140   0.00584  -0.0043  0.0292  1.0000  -4.4221   0.0000   0.0000   0.0000   0.2453
   8.600   0.9760   0.01150   0.00595  -0.0038  0.0287  1.0000  -4.4969   0.0000   0.0000   0.0000   0.2446
   8.700   0.9844   0.01161   0.00606  -0.0033  0.0281  1.0000  -4.5720   0.0000   0.0000   0.0000   0.2439
   8.800   0.9928   0.01173   0.00617  -0.0028  0.0274  1.0000  -4.6473   0.0000   0.0000   0.0000   0.2433
   8.900   1.0012   0.01186   0.00629  -0.0022  0.0267  1.0000  -4.7224   0.0000   0.0000   0.0000   0.2426
   9.000   1.0095   0.01201   0.00643  -0.0017  0.0259  1.0000  -4.7968   0.0000   0.0000   0.0000   0.2420
   9.100   1.0175   0.01218   0.00660  -0.0011  0.0249  1.0000  -4.8688   0.0000   0.0000   0.0000   0.2413
   9.200   1.0252   0.01240   0.00684  -0.0005  0.0239  1.0000  -4.9367   0.0000   0.0000   0.0000   0.2405
   9.300   1.0339   0.01251   0.00696  -0.0000  0.0237  1.0000  -5.0151   0.0000   0.0000   0.0000   0.2399
   9.400   1.0429   0.01260   0.00706   0.0004  0.0236  1.0000  -5.0962   0.0000   0.0000   0.0000   0.2394
   9.500   1.0519   0.01270   0.00717   0.0007  0.0234  1.0000  -5.1777   0.0000   0.0000   0.0000   0.2389
   9.600   1.0609   0.01280   0.00728   0.0011  0.0232  1.0000  -5.2593   0.0000   0.0000   0.0000   0.2385
   9.700   1.0699   0.01291   0.00739   0.0015  0.0230  1.0000  -5.3410   0.0000   0.0000   0.0000   0.2380
   9.800   1.0788   0.01302   0.00752   0.0019  0.0227  1.0000  -5.4266   0.0000   0.0000   0.0000   0.2375
   9.900   1.0877   0.01314   0.00764   0.0023  0.0224  1.0000  -5.5176   0.0000   0.0000   0.0000   0.2370
  10.000   1.0967   0.01327   0.00778   0.0027  0.0221  1.0000  -5.6092   0.0000   0.0000   0.0000   0.2366
  10.100   1.1057   0.01340   0.00792   0.0031  0.0217  1.0000  -5.7014   0.0000   0.0000   0.0000   0.2361
  10.200   1.1146   0.01353   0.00806   0.0034  0.0214  1.0000  -5.7941   0.0000   0.0000   0.0000   0.2357
  10.300   1.1236   0.01368   0.00820   0.0038  0.0210  1.0000  -5.8873   0.0000   0.0000   0.0000   0.2353
  10.400   1.1326   0.01383   0.00835   0.0041  0.0207  1.0000  -5.9809   0.0000   0.0000   0.0000   0.2348
  10.500   1.1415   0.01399   0.00851   0.0045  0.0203  1.0000  -6.0746   0.0000   0.0000   0.0000   0.2344
  10.600   1.1503   0.01417   0.00869   0.0049  0.0198  1.0000  -6.1678   0.0000   0.0000   0.0000   0.2340
  10.700   1.1588   0.01437   0.00890   0.0053  0.0193  1.0000  -6.2591   0.0000   0.0000   0.0000   0.2336
  10.800   1.1669   0.01463   0.00918   0.0057  0.0187  1.0000  -6.3458   0.0000   0.0000   0.0000   0.2331
  10.900   1.1740   0.01498   0.00957   0.0063  0.0180  1.0000  -6.4242   0.0000   0.0000   0.0000   0.2324
  11.000   1.1832   0.01512   0.00973   0.0066  0.0179  1.0000  -6.5223   0.0000   0.0000   0.0000   0.2321
  11.100   1.1927   0.01524   0.00985   0.0069  0.0178  1.0000  -6.6242   0.0000   0.0000   0.0000   0.2318
  11.200   1.2021   0.01536   0.00998   0.0071  0.0177  1.0000  -6.7261   0.0000   0.0000   0.0000   0.2315
  11.300   1.2114   0.01550   0.01012   0.0074  0.0176  1.0000  -6.8275   0.0000   0.0000   0.0000   0.2312
  11.400   1.2205   0.01564   0.01028   0.0076  0.0174  1.0000  -6.9285   0.0000   0.0000   0.0000   0.2309
  11.500   1.2296   0.01579   0.01044   0.0079  0.0173  1.0000  -7.0294   0.0000   0.0000   0.0000   0.2305
  11.600   1.2387   0.01595   0.01062   0.0082  0.0171  1.0000  -7.1304   0.0000   0.0000   0.0000   0.2302
  11.700   1.2476   0.01611   0.01080   0.0085  0.0170  1.0000  -7.2315   0.0000   0.0000   0.0000   0.2299
  11.800   1.2565   0.01628   0.01098   0.0088  0.0168  1.0000  -7.3326   0.0000   0.0000   0.0000   0.2295
  11.900   1.2653   0.01645   0.01116   0.0091  0.0166  1.0000  -7.4339   0.0000   0.0000   0.0000   0.2292
  12.000   1.2741   0.01663   0.01135   0.0094  0.0164  1.0000  -7.5353   0.0000   0.0000   0.0000   0.2288
  12.100   1.2827   0.01681   0.01155   0.0097  0.0163  1.0000  -7.6370   0.0000   0.0000   0.0000   0.2285
  12.200   1.2913   0.01700   0.01174   0.0101  0.0161  1.0000  -7.7389   0.0000   0.0000   0.0000   0.2281
  12.300   1.2998   0.01719   0.01194   0.0104  0.0159  1.0000  -7.8407   0.0000   0.0000   0.0000   0.2277
  12.400   1.3082   0.01738   0.01215   0.0108  0.0157  1.0000  -7.9424   0.0000   0.0000   0.0000   0.2274
  12.500   1.3165   0.01759   0.01236   0.0111  0.0155  1.0000  -8.0441   0.0000   0.0000   0.0000   0.2270
  12.600   1.3247   0.01780   0.01258   0.0115  0.0153  1.0000  -8.1455   0.0000   0.0000   0.0000   0.2266
  12.700   1.3327   0.01802   0.01281   0.0119  0.0152  1.0000  -8.2464   0.0000   0.0000   0.0000   0.2262
  12.800   1.3405   0.01825   0.01305   0.0123  0.0150  1.0000  -8.3465   0.0000   0.0000   0.0000   0.2258
  12.900   1.3481   0.01849   0.01331   0.0127  0.0147  1.0000  -8.4450   0.0000   0.0000   0.0000   0.2254
  13.000   1.3554   0.01876   0.01359   0.0132  0.0145  1.0000  -8.5411   0.0000   0.0000   0.0000   0.2249
  13.100   1.3622   0.01906   0.01391   0.0138  0.0143  1.0000  -8.6335   0.0000   0.0000   0.0000   0.2244
  13.200   1.3684   0.01940   0.01428   0.0144  0.0140  1.0000  -8.7208   0.0000   0.0000   0.0000   0.2238
  13.300   1.3737   0.01980   0.01471   0.0151  0.0137  1.0000  -8.8013   0.0000   0.0000   0.0000   0.2232
  13.400   1.3778   0.02027   0.01525   0.0160  0.0135  1.0000  -8.8719   0.0000   0.0000   0.0000   0.2224
  13.500   1.3800   0.02087   0.01591   0.0171  0.0132  1.0000  -8.9270   0.0000   0.0000   0.0000   0.2215
  13.600   1.3855   0.02117   0.01624   0.0177  0.0131  1.0000  -9.0148   0.0000   0.0000   0.0000   0.2209
  13.700   1.3918   0.02139   0.01648   0.0184  0.0131  1.0000  -9.1109   0.0000   0.0000   0.0000   0.2203
  13.800   1.3978   0.02161   0.01672   0.0190  0.0131  1.0000  -9.2055   0.0000   0.0000   0.0000   0.2197
  13.900   1.4036   0.02184   0.01697   0.0197  0.0130  1.0000  -9.2990   0.0000   0.0000   0.0000   0.2191
  14.000   1.4092   0.02209   0.01723   0.0204  0.0130  1.0000  -9.3917   0.0000   0.0000   0.0000   0.2185
  14.100   1.4146   0.02235   0.01751   0.0211  0.0129  1.0000  -9.4836   0.0000   0.0000   0.0000   0.2179
  14.200   1.4199   0.02262   0.01780   0.0218  0.0129  1.0000  -9.5744   0.0000   0.0000   0.0000   0.2173
  14.300   1.4250   0.02290   0.01811   0.0225  0.0128  1.0000  -9.6646   0.0000   0.0000   0.0000   0.2167
  14.400   1.4301   0.02320   0.01843   0.0231  0.0128  1.0000  -9.7546   0.0000   0.0000   0.0000   0.2161
  14.500   1.4350   0.02352   0.01877   0.0238  0.0127  1.0000  -9.8429   0.0000   0.0000   0.0000   0.2155
  14.600   1.4395   0.02386   0.01914   0.0245  0.0127  1.0000  -9.9294   0.0000   0.0000   0.0000   0.2149
  14.700   1.4440   0.02421   0.01951   0.0251  0.0126  1.0000  -10.0155   0.0000   0.0000   0.0000   0.2144
  14.800   1.4483   0.02458   0.01991   0.0257  0.0125  1.0000  -10.1008   0.0000   0.0000   0.0000   0.2138
  14.900   1.4524   0.02498   0.02034   0.0263  0.0125  1.0000  -10.1842   0.0000   0.0000   0.0000   0.2132
  15.000   1.4563   0.02540   0.02078   0.0269  0.0124  1.0000  -10.2669   0.0000   0.0000   0.0000   0.2127


