xflr5 v6.61

 Calculated polar for: NACA 0012

 1 1 Reynolds number fixed          Mach number fixed         

 xtrf =   1.000 (top)        1.000 (bottom)
 Mach =   0.000     Re =     0.900 e 6     Ncrit =   9.000

  alpha     CL        CD       CDp       Cm    Top Xtr Bot Xtr   Cpmin    Chinge    XCp    
 ------- -------- --------- --------- -------- ------- ------- -------- --------- ---------
 -15.000  -1.3527   0.03423   0.02968  -0.0321  1.0000  0.0151  -9.3931   0.0000   0.0000   0.0000   0.2073
 -14.900  -1.3510   0.03342   0.02883  -0.0320  1.0000  0.0152  -9.3341   0.0000   0.0000   0.0000   0.2075
 -14.800  -1.3493   0.03263   0.02801  -0.0318  1.0000  0.0153  -9.2745   0.0000   0.0000   0.0000   0.2078
 -14.700  -1.3473   0.03190   0.02725  -0.0316  1.0000  0.0154  -9.2125   0.0000   0.0000   0.0000   0.2082
 -14.600  -1.3453   0.03120   0.02651  -0.0313  1.0000  0.0155  -9.1502   0.0000   0.0000   0.0000   0.2086
 -14.500  -1.3430   0.03055   0.02583  -0.0310  1.0000  0.0156  -9.0857   0.0000   0.0000   0.0000   0.2090
 -14.400  -1.3406   0.02992   0.02516  -0.0306  1.0000  0.0157  -9.0205   0.0000   0.0000   0.0000   0.2094
 -14.300  -1.3378   0.02932   0.02454  -0.0302  1.0000  0.0158  -8.9531   0.0000   0.0000   0.0000   0.2099
 -14.200  -1.3349   0.02875   0.02393  -0.0297  1.0000  0.0160  -8.8853   0.0000   0.0000   0.0000   0.2103
 -14.100  -1.3319   0.02821   0.02336  -0.0292  1.0000  0.0161  -8.8164   0.0000   0.0000   0.0000   0.2108
 -14.000  -1.3287   0.02770   0.02282  -0.0287  1.0000  0.0162  -8.7467   0.0000   0.0000   0.0000   0.2114
 -13.900  -1.3255   0.02721   0.02229  -0.0281  1.0000  0.0163  -8.6765   0.0000   0.0000   0.0000   0.2119
 -13.800  -1.3220   0.02675   0.02178  -0.0275  1.0000  0.0165  -8.6044   0.0000   0.0000   0.0000   0.2125
 -13.700  -1.3183   0.02630   0.02131  -0.0269  1.0000  0.0166  -8.5316   0.0000   0.0000   0.0000   0.2131
 -13.600  -1.3144   0.02588   0.02085  -0.0263  1.0000  0.0167  -8.4578   0.0000   0.0000   0.0000   0.2137
 -13.500  -1.3104   0.02548   0.02042  -0.0256  1.0000  0.0168  -8.3829   0.0000   0.0000   0.0000   0.2143
 -13.400  -1.3063   0.02510   0.02001  -0.0249  1.0000  0.0170  -8.3075   0.0000   0.0000   0.0000   0.2150
 -13.300  -1.3019   0.02474   0.01961  -0.0242  1.0000  0.0171  -8.2306   0.0000   0.0000   0.0000   0.2156
 -13.200  -1.2973   0.02439   0.01924  -0.0235  1.0000  0.0172  -8.1523   0.0000   0.0000   0.0000   0.2162
 -13.100  -1.2926   0.02407   0.01888  -0.0228  1.0000  0.0173  -8.0734   0.0000   0.0000   0.0000   0.2169
 -13.000  -1.2877   0.02376   0.01855  -0.0220  1.0000  0.0174  -7.9935   0.0000   0.0000   0.0000   0.2176
 -12.900  -1.2825   0.02347   0.01823  -0.0213  1.0000  0.0175  -7.9122   0.0000   0.0000   0.0000   0.2182
 -12.800  -1.2772   0.02320   0.01793  -0.0206  1.0000  0.0176  -7.8299   0.0000   0.0000   0.0000   0.2189
 -12.700  -1.2716   0.02294   0.01765  -0.0199  1.0000  0.0177  -7.7462   0.0000   0.0000   0.0000   0.2196
 -12.600  -1.2657   0.02270   0.01738  -0.0192  1.0000  0.0178  -7.6605   0.0000   0.0000   0.0000   0.2202
 -12.500  -1.2591   0.02246   0.01712  -0.0186  1.0000  0.0178  -7.5716   0.0000   0.0000   0.0000   0.2207
 -12.400  -1.2519   0.02223   0.01687  -0.0182  1.0000  0.0179  -7.4801   0.0000   0.0000   0.0000   0.2211
 -12.300  -1.2490   0.02166   0.01624  -0.0172  1.0000  0.0181  -7.4231   0.0000   0.0000   0.0000   0.2221
 -12.200  -1.2473   0.02098   0.01550  -0.0160  1.0000  0.0185  -7.3768   0.0000   0.0000   0.0000   0.2231
 -12.100  -1.2435   0.02045   0.01493  -0.0151  1.0000  0.0188  -7.3141   0.0000   0.0000   0.0000   0.2240
 -12.000  -1.2382   0.02003   0.01447  -0.0144  1.0000  0.0192  -7.2400   0.0000   0.0000   0.0000   0.2246
 -11.900  -1.2318   0.01969   0.01411  -0.0138  1.0000  0.0195  -7.1575   0.0000   0.0000   0.0000   0.2252
 -11.800  -1.2247   0.01940   0.01381  -0.0133  1.0000  0.0198  -7.0693   0.0000   0.0000   0.0000   0.2257
 -11.700  -1.2170   0.01915   0.01355  -0.0128  1.0000  0.0201  -6.9776   0.0000   0.0000   0.0000   0.2261
 -11.600  -1.2091   0.01893   0.01331  -0.0124  1.0000  0.0204  -6.8841   0.0000   0.0000   0.0000   0.2266
 -11.500  -1.2009   0.01872   0.01310  -0.0121  1.0000  0.0207  -6.7895   0.0000   0.0000   0.0000   0.2269
 -11.400  -1.1926   0.01852   0.01289  -0.0117  1.0000  0.0210  -6.6946   0.0000   0.0000   0.0000   0.2273
 -11.300  -1.1842   0.01832   0.01268  -0.0113  1.0000  0.0213  -6.6004   0.0000   0.0000   0.0000   0.2277
 -11.200  -1.1758   0.01813   0.01247  -0.0110  1.0000  0.0216  -6.5071   0.0000   0.0000   0.0000   0.2281
 -11.100  -1.1674   0.01793   0.01225  -0.0106  1.0000  0.0219  -6.4147   0.0000   0.0000   0.0000   0.2285
 -11.000  -1.1590   0.01773   0.01203  -0.0103  1.0000  0.0222  -6.3232   0.0000   0.0000   0.0000   0.2288
 -10.900  -1.1505   0.01753   0.01182  -0.0099  1.0000  0.0225  -6.2320   0.0000   0.0000   0.0000   0.2292
 -10.800  -1.1419   0.01734   0.01161  -0.0095  1.0000  0.0227  -6.1408   0.0000   0.0000   0.0000   0.2296
 -10.700  -1.1332   0.01716   0.01141  -0.0092  1.0000  0.0230  -6.0493   0.0000   0.0000   0.0000   0.2300
 -10.600  -1.1244   0.01699   0.01122  -0.0088  1.0000  0.0232  -5.9576   0.0000   0.0000   0.0000   0.2304
 -10.500  -1.1155   0.01683   0.01105  -0.0085  1.0000  0.0234  -5.8654   0.0000   0.0000   0.0000   0.2307
 -10.400  -1.1064   0.01669   0.01089  -0.0082  1.0000  0.0236  -5.7730   0.0000   0.0000   0.0000   0.2311
 -10.300  -1.0973   0.01655   0.01073  -0.0079  1.0000  0.0237  -5.6805   0.0000   0.0000   0.0000   0.2314
 -10.200  -1.0894   0.01630   0.01046  -0.0074  1.0000  0.0240  -5.5980   0.0000   0.0000   0.0000   0.2319
 -10.100  -1.0836   0.01584   0.00994  -0.0066  1.0000  0.0248  -5.5334   0.0000   0.0000   0.0000   0.2328
 -10.000  -1.0764   0.01552   0.00960  -0.0060  1.0000  0.0255  -5.4573   0.0000   0.0000   0.0000   0.2334
  -9.900  -1.0684   0.01528   0.00935  -0.0055  1.0000  0.0261  -5.3752   0.0000   0.0000   0.0000   0.2340
  -9.800  -1.0600   0.01507   0.00915  -0.0051  1.0000  0.0266  -5.2901   0.0000   0.0000   0.0000   0.2345
  -9.700  -1.0515   0.01489   0.00897  -0.0047  1.0000  0.0272  -5.2106   0.0000   0.0000   0.0000   0.2350
  -9.600  -1.0428   0.01473   0.00880  -0.0043  1.0000  0.0277  -5.1327   0.0000   0.0000   0.0000   0.2354
  -9.500  -1.0341   0.01458   0.00864  -0.0039  1.0000  0.0281  -5.0548   0.0000   0.0000   0.0000   0.2359
  -9.400  -1.0254   0.01443   0.00849  -0.0035  1.0000  0.0286  -4.9772   0.0000   0.0000   0.0000   0.2364
  -9.300  -1.0167   0.01429   0.00834  -0.0030  1.0000  0.0291  -4.9002   0.0000   0.0000   0.0000   0.2369
  -9.200  -1.0080   0.01416   0.00819  -0.0026  1.0000  0.0296  -4.8237   0.0000   0.0000   0.0000   0.2374
  -9.100  -0.9993   0.01403   0.00805  -0.0022  1.0000  0.0300  -4.7474   0.0000   0.0000   0.0000   0.2380
  -9.000  -0.9905   0.01391   0.00792  -0.0018  1.0000  0.0304  -4.6710   0.0000   0.0000   0.0000   0.2385
  -8.900  -0.9815   0.01381   0.00781  -0.0013  1.0000  0.0307  -4.5942   0.0000   0.0000   0.0000   0.2390
  -8.800  -0.9725   0.01372   0.00771  -0.0010  1.0000  0.0310  -4.5167   0.0000   0.0000   0.0000   0.2395
  -8.700  -0.9646   0.01351   0.00749  -0.0004  1.0000  0.0317  -4.4488   0.0000   0.0000   0.0000   0.2402
  -8.600  -0.9575   0.01324   0.00719   0.0004  1.0000  0.0332  -4.3868   0.0000   0.0000   0.0000   0.2411
  -8.500  -0.9496   0.01305   0.00700   0.0009  1.0000  0.0344  -4.3181   0.0000   0.0000   0.0000   0.2418
  -8.400  -0.9414   0.01289   0.00686   0.0015  1.0000  0.0354  -4.2468   0.0000   0.0000   0.0000   0.2425
  -8.300  -0.9330   0.01275   0.00673   0.0020  1.0000  0.0363  -4.1748   0.0000   0.0000   0.0000   0.2432
  -8.200  -0.9246   0.01263   0.00660   0.0025  1.0000  0.0371  -4.1031   0.0000   0.0000   0.0000   0.2438
  -8.100  -0.9160   0.01251   0.00648   0.0030  1.0000  0.0379  -4.0314   0.0000   0.0000   0.0000   0.2445
  -8.000  -0.9074   0.01241   0.00637   0.0034  1.0000  0.0387  -3.9601   0.0000   0.0000   0.0000   0.2452
  -7.900  -0.8988   0.01231   0.00626   0.0039  1.0000  0.0393  -3.8889   0.0000   0.0000   0.0000   0.2458
  -7.800  -0.8901   0.01222   0.00617   0.0044  1.0000  0.0398  -3.8177   0.0000   0.0000   0.0000   0.2465
  -7.700  -0.8813   0.01215   0.00608   0.0048  1.0000  0.0402  -3.7465   0.0000   0.0000   0.0000   0.2472
  -7.600  -0.8736   0.01195   0.00588   0.0055  1.0000  0.0419  -3.6841   0.0000   0.0000   0.0000   0.2481
  -7.500  -0.8659   0.01177   0.00570   0.0061  1.0000  0.0440  -3.6207   0.0000   0.0000   0.0000   0.2490
  -7.400  -0.8578   0.01162   0.00557   0.0067  1.0000  0.0457  -3.5545   0.0000   0.0000   0.0000   0.2498
  -7.300  -0.8495   0.01149   0.00546   0.0072  1.0000  0.0472  -3.4876   0.0000   0.0000   0.0000   0.2506
  -7.200  -0.8411   0.01138   0.00535   0.0077  1.0000  0.0486  -3.4204   0.0000   0.0000   0.0000   0.2514
  -7.100  -0.8326   0.01129   0.00525   0.0082  1.0000  0.0498  -3.3532   0.0000   0.0000   0.0000   0.2522
  -7.000  -0.8239   0.01121   0.00516   0.0087  1.0000  0.0509  -3.2857   0.0000   0.0000   0.0000   0.2530
  -6.900  -0.8151   0.01114   0.00509   0.0092  1.0000  0.0516  -3.2181   0.0000   0.0000   0.0000   0.2537
  -6.800  -0.8068   0.01102   0.00496   0.0097  1.0000  0.0539  -3.1546   0.0000   0.0000   0.0000   0.2546
  -6.700  -0.7987   0.01086   0.00484   0.0102  1.0000  0.0575  -3.0970   0.0000   0.0000   0.0000   0.2555
  -6.600  -0.7870   0.01071   0.00472   0.0100  0.9996  0.0605  -3.0295   0.0000   0.0000   0.0000   0.2555
  -6.500  -0.7733   0.01059   0.00462   0.0094  0.9990  0.0633  -2.9565   0.0000   0.0000   0.0000   0.2551
  -6.400  -0.7595   0.01049   0.00452   0.0088  0.9984  0.0653  -2.8835   0.0000   0.0000   0.0000   0.2545
  -6.300  -0.7456   0.01040   0.00442   0.0082  0.9976  0.0674  -2.8114   0.0000   0.0000   0.0000   0.2540
  -6.200  -0.7321   0.01023   0.00429   0.0076  0.9968  0.0734  -2.7418   0.0000   0.0000   0.0000   0.2535
  -6.100  -0.7185   0.01008   0.00419   0.0070  0.9960  0.0779  -2.6715   0.0000   0.0000   0.0000   0.2529
  -6.000  -0.7046   0.00997   0.00408   0.0063  0.9951  0.0816  -2.6008   0.0000   0.0000   0.0000   0.2523
  -5.900  -0.6905   0.00988   0.00400   0.0057  0.9943  0.0843  -2.5301   0.0000   0.0000   0.0000   0.2515
  -5.800  -0.6767   0.00972   0.00389   0.0050  0.9935  0.0923  -2.4616   0.0000   0.0000   0.0000   0.2508
  -5.700  -0.6627   0.00958   0.00379   0.0043  0.9927  0.0986  -2.3926   0.0000   0.0000   0.0000   0.2500
  -5.600  -0.6484   0.00948   0.00371   0.0036  0.9920  0.1032  -2.3232   0.0000   0.0000   0.0000   0.2491
  -5.500  -0.6342   0.00934   0.00361   0.0029  0.9913  0.1120  -2.2554   0.0000   0.0000   0.0000   0.2481
  -5.400  -0.6200   0.00919   0.00352   0.0021  0.9907  0.1199  -2.1878   0.0000   0.0000   0.0000   0.2471
  -5.300  -0.6054   0.00909   0.00344   0.0013  0.9901  0.1254  -2.1221   0.0000   0.0000   0.0000   0.2459
  -5.200  -0.5911   0.00895   0.00335   0.0006  0.9895  0.1353  -2.0626   0.0000   0.0000   0.0000   0.2448
  -5.100  -0.5794   0.00882   0.00326   0.0004  0.9879  0.1434  -2.0092   0.0000   0.0000   0.0000   0.2446
  -5.000  -0.5668   0.00872   0.00318   0.0001  0.9864  0.1497  -1.9540   0.0000   0.0000   0.0000   0.2441
  -4.900  -0.5541   0.00856   0.00308  -0.0003  0.9848  0.1619  -1.8994   0.0000   0.0000   0.0000   0.2435
  -4.800  -0.5408   0.00844   0.00301  -0.0008  0.9834  0.1713  -1.8437   0.0000   0.0000   0.0000   0.2426
  -4.700  -0.5273   0.00831   0.00292  -0.0013  0.9820  0.1827  -1.7884   0.0000   0.0000   0.0000   0.2416
  -4.600  -0.5137   0.00818   0.00285  -0.0019  0.9807  0.1935  -1.7329   0.0000   0.0000   0.0000   0.2404
  -4.500  -0.4996   0.00807   0.00278  -0.0026  0.9794  0.2032  -1.6772   0.0000   0.0000   0.0000   0.2390
  -4.400  -0.4860   0.00793   0.00270  -0.0032  0.9779  0.2153  -1.6228   0.0000   0.0000   0.0000   0.2377
  -4.300  -0.4722   0.00783   0.00264  -0.0038  0.9764  0.2254  -1.5697   0.0000   0.0000   0.0000   0.2363
  -4.200  -0.4589   0.00768   0.00256  -0.0043  0.9749  0.2396  -1.5226   0.0000   0.0000   0.0000   0.2350
  -4.100  -0.4451   0.00759   0.00250  -0.0048  0.9733  0.2502  -1.4748   0.0000   0.0000   0.0000   0.2335
  -4.000  -0.4315   0.00744   0.00243  -0.0054  0.9717  0.2642  -1.4277   0.0000   0.0000   0.0000   0.2318
  -3.900  -0.4175   0.00736   0.00237  -0.0061  0.9701  0.2741  -1.3804   0.0000   0.0000   0.0000   0.2299
  -3.800  -0.4076   0.00725   0.00231  -0.0058  0.9668  0.2858  -1.3412   0.0000   0.0000   0.0000   0.2304
  -3.700  -0.3972   0.00715   0.00225  -0.0056  0.9631  0.2971  -1.3012   0.0000   0.0000   0.0000   0.2305
  -3.600  -0.3864   0.00705   0.00220  -0.0055  0.9594  0.3088  -1.2608   0.0000   0.0000   0.0000   0.2304
  -3.500  -0.3749   0.00695   0.00214  -0.0055  0.9559  0.3212  -1.2215   0.0000   0.0000   0.0000   0.2299
  -3.400  -0.3629   0.00687   0.00209  -0.0056  0.9525  0.3315  -1.1840   0.0000   0.0000   0.0000   0.2291
  -3.300  -0.3511   0.00676   0.00203  -0.0057  0.9493  0.3436  -1.1471   0.0000   0.0000   0.0000   0.2283
  -3.100  -0.3296   0.00659   0.00194  -0.0055  0.9413  0.3668  -1.0774   0.0000   0.0000   0.0000   0.2281
  -3.000  -0.3191   0.00653   0.00190  -0.0053  0.9363  0.3777  -1.0433   0.0000   0.0000   0.0000   0.2282
  -2.900  -0.3086   0.00644   0.00186  -0.0051  0.9313  0.3888  -1.0111   0.0000   0.0000   0.0000   0.2283
  -2.800  -0.2977   0.00637   0.00181  -0.0050  0.9264  0.4000  -0.9806   0.0000   0.0000   0.0000   0.2282
  -2.700  -0.2868   0.00631   0.00176  -0.0048  0.9215  0.4102  -0.9501   0.0000   0.0000   0.0000   0.2281
  -2.600  -0.2764   0.00622   0.00172  -0.0046  0.9164  0.4230  -0.9207   0.0000   0.0000   0.0000   0.2282
  -2.500  -0.2658   0.00617   0.00169  -0.0045  0.9106  0.4331  -0.8910   0.0000   0.0000   0.0000   0.2282
  -2.400  -0.2554   0.00609   0.00165  -0.0042  0.9044  0.4447  -0.8629   0.0000   0.0000   0.0000   0.2284
  -2.300  -0.2448   0.00604   0.00161  -0.0040  0.8982  0.4555  -0.8368   0.0000   0.0000   0.0000   0.2286
  -2.200  -0.2341   0.00599   0.00158  -0.0039  0.8922  0.4662  -0.8109   0.0000   0.0000   0.0000   0.2286
  -2.100  -0.2236   0.00592   0.00155  -0.0037  0.8859  0.4786  -0.7852   0.0000   0.0000   0.0000   0.2286
  -2.000  -0.2128   0.00589   0.00152  -0.0035  0.8787  0.4884  -0.7595   0.0000   0.0000   0.0000   0.2286
  -1.900  -0.2024   0.00583   0.00149  -0.0033  0.8715  0.4998  -0.7366   0.0000   0.0000   0.0000   0.2290
  -1.800  -0.1917   0.00580   0.00146  -0.0031  0.8646  0.5105  -0.7140   0.0000   0.0000   0.0000   0.2290
  -1.700  -0.1810   0.00575   0.00144  -0.0030  0.8574  0.5215  -0.6916   0.0000   0.0000   0.0000   0.2289
  -1.600  -0.1705   0.00570   0.00141  -0.0028  0.8492  0.5334  -0.6695   0.0000   0.0000   0.0000   0.2291
  -1.500  -0.1599   0.00569   0.00138  -0.0026  0.8409  0.5429  -0.6493   0.0000   0.0000   0.0000   0.2293
  -1.400  -0.1492   0.00564   0.00136  -0.0024  0.8336  0.5544  -0.6298   0.0000   0.0000   0.0000   0.2292
  -1.300  -0.1384   0.00561   0.00134  -0.0023  0.8250  0.5650  -0.6103   0.0000   0.0000   0.0000   0.2290
  -1.200  -0.1280   0.00559   0.00132  -0.0020  0.8160  0.5759  -0.5912   0.0000   0.0000   0.0000   0.2296
  -1.100  -0.1173   0.00556   0.00130  -0.0019  0.8079  0.5874  -0.5740   0.0000   0.0000   0.0000   0.2295
  -1.000  -0.1064   0.00554   0.00129  -0.0017  0.7988  0.5968  -0.5569   0.0000   0.0000   0.0000   0.2290
  -0.900  -0.0961   0.00551   0.00127  -0.0015  0.7893  0.6081  -0.5404   0.0000   0.0000   0.0000   0.2298
  -0.800  -0.0852   0.00550   0.00126  -0.0014  0.7808  0.6188  -0.5238   0.0000   0.0000   0.0000   0.2294
  -0.700  -0.0746   0.00548   0.00125  -0.0012  0.7712  0.6292  -0.5091   0.0000   0.0000   0.0000   0.2293
  -0.600  -0.0641   0.00547   0.00123  -0.0010  0.7610  0.6404  -0.4945   0.0000   0.0000   0.0000   0.2302
  -0.400  -0.0426   0.00544   0.00122  -0.0007  0.7422  0.6608  -0.4657   0.0000   0.0000   0.0000   0.2295
  -0.300  -0.0321   0.00545   0.00121  -0.0005  0.7319  0.6715  -0.4529   0.0000   0.0000   0.0000   0.2307
  -0.200  -0.0212   0.00544   0.00121  -0.0004  0.7226  0.6814  -0.4399   0.0000   0.0000   0.0000   0.2287
  -0.100  -0.0107   0.00543   0.00121  -0.0002  0.7120  0.6923  -0.4272   0.0000   0.0000   0.0000   0.2309
   0.000  -0.0000   0.00545   0.00120   0.0000  0.7019  0.7019  -0.4148   0.0000   0.0000   0.0000   0.4564
   0.100   0.0107   0.00543   0.00121   0.0002  0.6923  0.7120  -0.4272   0.0000   0.0000   0.0000   0.2309
   0.200   0.0212   0.00544   0.00121   0.0004  0.6814  0.7226  -0.4399   0.0000   0.0000   0.0000   0.2287
   0.400   0.0426   0.00544   0.00122   0.0007  0.6608  0.7422  -0.4657   0.0000   0.0000   0.0000   0.2295
   0.600   0.0641   0.00547   0.00123   0.0010  0.6404  0.7610  -0.4945   0.0000   0.0000   0.0000   0.2302
   0.700   0.0746   0.00548   0.00125   0.0012  0.6292  0.7712  -0.5091   0.0000   0.0000   0.0000   0.2293
   0.800   0.0852   0.00550   0.00126   0.0014  0.6188  0.7808  -0.5238   0.0000   0.0000   0.0000   0.2294
   0.900   0.0961   0.00551   0.00127   0.0015  0.6081  0.7893  -0.5404   0.0000   0.0000   0.0000   0.2298
   1.000   0.1064   0.00554   0.00129   0.0017  0.5968  0.7988  -0.5569   0.0000   0.0000   0.0000   0.2290
   1.100   0.1173   0.00556   0.00130   0.0019  0.5874  0.8079  -0.5740   0.0000   0.0000   0.0000   0.2295
   1.200   0.1280   0.00559   0.00132   0.0020  0.5759  0.8160  -0.5912   0.0000   0.0000   0.0000   0.2296
   1.300   0.1384   0.00561   0.00134   0.0023  0.5650  0.8250  -0.6103   0.0000   0.0000   0.0000   0.2290
   1.400   0.1492   0.00564   0.00136   0.0024  0.5544  0.8336  -0.6298   0.0000   0.0000   0.0000   0.2293
   1.500   0.1599   0.00569   0.00138   0.0025  0.5429  0.8409  -0.6493   0.0000   0.0000   0.0000   0.2293
   1.600   0.1705   0.00570   0.00141   0.0028  0.5334  0.8492  -0.6695   0.0000   0.0000   0.0000   0.2291
   1.700   0.1810   0.00575   0.00144   0.0030  0.5215  0.8574  -0.6916   0.0000   0.0000   0.0000   0.2289
   1.800   0.1917   0.00580   0.00146   0.0031  0.5105  0.8646  -0.7140   0.0000   0.0000   0.0000   0.2290
   1.900   0.2025   0.00583   0.00149   0.0033  0.4998  0.8715  -0.7366   0.0000   0.0000   0.0000   0.2290
   2.000   0.2128   0.00589   0.00152   0.0035  0.4884  0.8787  -0.7595   0.0000   0.0000   0.0000   0.2286
   2.100   0.2236   0.00592   0.00155   0.0037  0.4785  0.8859  -0.7852   0.0000   0.0000   0.0000   0.2286
   2.200   0.2341   0.00599   0.00158   0.0038  0.4662  0.8922  -0.8109   0.0000   0.0000   0.0000   0.2287
   2.300   0.2448   0.00604   0.00161   0.0040  0.4555  0.8982  -0.8368   0.0000   0.0000   0.0000   0.2286
   2.400   0.2554   0.00609   0.00165   0.0042  0.4447  0.9044  -0.8629   0.0000   0.0000   0.0000   0.2284
   2.500   0.2658   0.00617   0.00169   0.0045  0.4331  0.9106  -0.8910   0.0000   0.0000   0.0000   0.2282
   2.600   0.2764   0.00622   0.00172   0.0046  0.4230  0.9164  -0.9207   0.0000   0.0000   0.0000   0.2282
   2.700   0.2868   0.00631   0.00176   0.0048  0.4102  0.9215  -0.9501   0.0000   0.0000   0.0000   0.2281
   2.800   0.2978   0.00637   0.00181   0.0050  0.4000  0.9264  -0.9806   0.0000   0.0000   0.0000   0.2282
   2.900   0.3086   0.00644   0.00186   0.0051  0.3888  0.9313  -1.0111   0.0000   0.0000   0.0000   0.2283
   3.000   0.3192   0.00653   0.00190   0.0053  0.3777  0.9363  -1.0434   0.0000   0.0000   0.0000   0.2282
   3.100   0.3296   0.00659   0.00194   0.0055  0.3668  0.9413  -1.0774   0.0000   0.0000   0.0000   0.2281
   3.300   0.3511   0.00676   0.00203   0.0057  0.3436  0.9493  -1.1471   0.0000   0.0000   0.0000   0.2283
   3.400   0.3629   0.00687   0.00209   0.0056  0.3315  0.9525  -1.1840   0.0000   0.0000   0.0000   0.2291
   3.500   0.3749   0.00695   0.00214   0.0055  0.3212  0.9559  -1.2215   0.0000   0.0000   0.0000   0.2299
   3.600   0.3864   0.00705   0.00220   0.0055  0.3088  0.9594  -1.2608   0.0000   0.0000   0.0000   0.2304
   3.700   0.3972   0.00715   0.00225   0.0056  0.2971  0.9631  -1.3012   0.0000   0.0000   0.0000   0.2305
   3.800   0.4076   0.00725   0.00231   0.0058  0.2858  0.9668  -1.3412   0.0000   0.0000   0.0000   0.2304
   3.900   0.4175   0.00736   0.00236   0.0060  0.2741  0.9701  -1.3804   0.0000   0.0000   0.0000   0.2299
   4.000   0.4315   0.00744   0.00243   0.0054  0.2642  0.9717  -1.4278   0.0000   0.0000   0.0000   0.2318
   4.100   0.4452   0.00758   0.00250   0.0048  0.2502  0.9733  -1.4748   0.0000   0.0000   0.0000   0.2335
   4.200   0.4589   0.00768   0.00256   0.0043  0.2396  0.9749  -1.5226   0.0000   0.0000   0.0000   0.2350
   4.300   0.4722   0.00783   0.00264   0.0038  0.2253  0.9764  -1.5697   0.0000   0.0000   0.0000   0.2363
   4.400   0.4860   0.00793   0.00270   0.0032  0.2153  0.9779  -1.6229   0.0000   0.0000   0.0000   0.2377
   4.500   0.4997   0.00807   0.00278   0.0026  0.2032  0.9794  -1.6773   0.0000   0.0000   0.0000   0.2390
   4.600   0.5137   0.00818   0.00285   0.0019  0.1935  0.9807  -1.7330   0.0000   0.0000   0.0000   0.2404
   4.700   0.5273   0.00831   0.00292   0.0013  0.1827  0.9820  -1.7884   0.0000   0.0000   0.0000   0.2416
   4.800   0.5408   0.00844   0.00301   0.0008  0.1713  0.9834  -1.8437   0.0000   0.0000   0.0000   0.2426
   4.900   0.5541   0.00856   0.00308   0.0003  0.1619  0.9849  -1.8994   0.0000   0.0000   0.0000   0.2435
   5.000   0.5668   0.00872   0.00318  -0.0001  0.1497  0.9864  -1.9540   0.0000   0.0000   0.0000   0.2441
   5.100   0.5794   0.00882   0.00326  -0.0004  0.1434  0.9880  -2.0092   0.0000   0.0000   0.0000   0.2446
   5.200   0.5911   0.00895   0.00335  -0.0006  0.1353  0.9895  -2.0625   0.0000   0.0000   0.0000   0.2448
   5.300   0.6054   0.00909   0.00344  -0.0013  0.1254  0.9901  -2.1222   0.0000   0.0000   0.0000   0.2460
   5.400   0.6201   0.00919   0.00352  -0.0021  0.1199  0.9907  -2.1879   0.0000   0.0000   0.0000   0.2471
   5.500   0.6343   0.00934   0.00361  -0.0029  0.1119  0.9913  -2.2556   0.0000   0.0000   0.0000   0.2482
   5.600   0.6484   0.00948   0.00371  -0.0036  0.1032  0.9920  -2.3234   0.0000   0.0000   0.0000   0.2491
   5.700   0.6627   0.00958   0.00379  -0.0043  0.0986  0.9928  -2.3928   0.0000   0.0000   0.0000   0.2500
   5.800   0.6767   0.00972   0.00389  -0.0050  0.0923  0.9935  -2.4617   0.0000   0.0000   0.0000   0.2508
   5.900   0.6905   0.00988   0.00400  -0.0057  0.0843  0.9944  -2.5303   0.0000   0.0000   0.0000   0.2516
   6.000   0.7046   0.00997   0.00408  -0.0063  0.0816  0.9952  -2.6009   0.0000   0.0000   0.0000   0.2523
   6.100   0.7185   0.01008   0.00419  -0.0070  0.0779  0.9960  -2.6717   0.0000   0.0000   0.0000   0.2529
   6.200   0.7322   0.01023   0.00429  -0.0076  0.0734  0.9969  -2.7420   0.0000   0.0000   0.0000   0.2535
   6.300   0.7457   0.01039   0.00442  -0.0082  0.0674  0.9977  -2.8115   0.0000   0.0000   0.0000   0.2540
   6.400   0.7596   0.01049   0.00452  -0.0088  0.0653  0.9984  -2.8837   0.0000   0.0000   0.0000   0.2546
   6.500   0.7734   0.01059   0.00462  -0.0094  0.0633  0.9991  -2.9567   0.0000   0.0000   0.0000   0.2551
   6.600   0.7871   0.01071   0.00472  -0.0101  0.0605  0.9997  -3.0298   0.0000   0.0000   0.0000   0.2556
   6.700   0.7985   0.01086   0.00483  -0.0102  0.0575  1.0000  -3.0964   0.0000   0.0000   0.0000   0.2555
   6.800   0.8066   0.01101   0.00496  -0.0097  0.0540  1.0000  -3.1540   0.0000   0.0000   0.0000   0.2546
   6.900   0.8149   0.01114   0.00509  -0.0091  0.0516  1.0000  -3.2174   0.0000   0.0000   0.0000   0.2537
   7.000   0.8237   0.01121   0.00516  -0.0087  0.0509  1.0000  -3.2851   0.0000   0.0000   0.0000   0.2529
   7.100   0.8324   0.01128   0.00525  -0.0082  0.0499  1.0000  -3.3526   0.0000   0.0000   0.0000   0.2522
   7.200   0.8409   0.01138   0.00535  -0.0077  0.0486  1.0000  -3.4198   0.0000   0.0000   0.0000   0.2514
   7.300   0.8493   0.01149   0.00546  -0.0072  0.0472  1.0000  -3.4870   0.0000   0.0000   0.0000   0.2506
   7.400   0.8576   0.01162   0.00557  -0.0067  0.0457  1.0000  -3.5540   0.0000   0.0000   0.0000   0.2498
   7.500   0.8657   0.01177   0.00570  -0.0061  0.0440  1.0000  -3.6201   0.0000   0.0000   0.0000   0.2489
   7.600   0.8735   0.01195   0.00587  -0.0055  0.0419  1.0000  -3.6836   0.0000   0.0000   0.0000   0.2481
   7.700   0.8811   0.01214   0.00608  -0.0048  0.0402  1.0000  -3.7459   0.0000   0.0000   0.0000   0.2472
   7.800   0.8899   0.01222   0.00616  -0.0043  0.0398  1.0000  -3.8172   0.0000   0.0000   0.0000   0.2465
   7.900   0.8986   0.01231   0.00626  -0.0039  0.0393  1.0000  -3.8884   0.0000   0.0000   0.0000   0.2458
   8.000   0.9073   0.01240   0.00637  -0.0034  0.0387  1.0000  -3.9596   0.0000   0.0000   0.0000   0.2451
   8.100   0.9159   0.01251   0.00648  -0.0029  0.0379  1.0000  -4.0309   0.0000   0.0000   0.0000   0.2445
   8.200   0.9244   0.01262   0.00660  -0.0024  0.0371  1.0000  -4.1026   0.0000   0.0000   0.0000   0.2438
   8.300   0.9329   0.01275   0.00672  -0.0019  0.0363  1.0000  -4.1744   0.0000   0.0000   0.0000   0.2431
   8.400   0.9413   0.01289   0.00685  -0.0014  0.0354  1.0000  -4.2464   0.0000   0.0000   0.0000   0.2425
   8.500   0.9495   0.01304   0.00700  -0.0009  0.0344  1.0000  -4.3177   0.0000   0.0000   0.0000   0.2418
   8.600   0.9574   0.01324   0.00718  -0.0003  0.0332  1.0000  -4.3865   0.0000   0.0000   0.0000   0.2411
   8.700   0.9646   0.01351   0.00748   0.0004  0.0317  1.0000  -4.4485   0.0000   0.0000   0.0000   0.2402
   8.800   0.9724   0.01372   0.00771   0.0010  0.0310  1.0000  -4.5164   0.0000   0.0000   0.0000   0.2395
   8.900   0.9815   0.01381   0.00781   0.0014  0.0307  1.0000  -4.5939   0.0000   0.0000   0.0000   0.2390
   9.000   0.9904   0.01391   0.00792   0.0018  0.0304  1.0000  -4.6708   0.0000   0.0000   0.0000   0.2385
   9.100   0.9992   0.01403   0.00805   0.0022  0.0300  1.0000  -4.7472   0.0000   0.0000   0.0000   0.2379
   9.200   1.0079   0.01416   0.00819   0.0026  0.0296  1.0000  -4.8235   0.0000   0.0000   0.0000   0.2374
   9.300   1.0167   0.01429   0.00834   0.0030  0.0291  1.0000  -4.9001   0.0000   0.0000   0.0000   0.2369
   9.400   1.0254   0.01443   0.00849   0.0035  0.0286  1.0000  -4.9772   0.0000   0.0000   0.0000   0.2364
   9.500   1.0342   0.01458   0.00864   0.0039  0.0281  1.0000  -5.0548   0.0000   0.0000   0.0000   0.2359
   9.600   1.0429   0.01473   0.00880   0.0043  0.0277  1.0000  -5.1328   0.0000   0.0000   0.0000   0.2354
   9.700   1.0515   0.01489   0.00897   0.0047  0.0272  1.0000  -5.2108   0.0000   0.0000   0.0000   0.2350
   9.800   1.0601   0.01507   0.00915   0.0051  0.0266  1.0000  -5.2904   0.0000   0.0000   0.0000   0.2345
   9.900   1.0685   0.01528   0.00935   0.0055  0.0261  1.0000  -5.3755   0.0000   0.0000   0.0000   0.2340
  10.000   1.0765   0.01552   0.00960   0.0060  0.0255  1.0000  -5.4577   0.0000   0.0000   0.0000   0.2334
  10.100   1.0837   0.01584   0.00995   0.0066  0.0248  1.0000  -5.5338   0.0000   0.0000   0.0000   0.2328
  10.200   1.0895   0.01630   0.01046   0.0074  0.0240  1.0000  -5.5984   0.0000   0.0000   0.0000   0.2320
  10.300   1.0975   0.01655   0.01073   0.0079  0.0237  1.0000  -5.6812   0.0000   0.0000   0.0000   0.2315
  10.400   1.1066   0.01669   0.01088   0.0082  0.0236  1.0000  -5.7738   0.0000   0.0000   0.0000   0.2311
  10.500   1.1157   0.01683   0.01105   0.0085  0.0234  1.0000  -5.8663   0.0000   0.0000   0.0000   0.2308
  10.600   1.1246   0.01699   0.01122   0.0088  0.0232  1.0000  -5.9585   0.0000   0.0000   0.0000   0.2304
  10.700   1.1334   0.01716   0.01141   0.0091  0.0230  1.0000  -6.0503   0.0000   0.0000   0.0000   0.2300
  10.800   1.1421   0.01734   0.01161   0.0095  0.0227  1.0000  -6.1419   0.0000   0.0000   0.0000   0.2297
  10.900   1.1507   0.01753   0.01182   0.0098  0.0225  1.0000  -6.2332   0.0000   0.0000   0.0000   0.2293
  11.000   1.1592   0.01773   0.01203   0.0102  0.0222  1.0000  -6.3244   0.0000   0.0000   0.0000   0.2289
  11.100   1.1677   0.01793   0.01225   0.0106  0.0219  1.0000  -6.4161   0.0000   0.0000   0.0000   0.2285
  11.200   1.1761   0.01813   0.01247   0.0109  0.0216  1.0000  -6.5086   0.0000   0.0000   0.0000   0.2281
  11.300   1.1845   0.01832   0.01268   0.0113  0.0213  1.0000  -6.6020   0.0000   0.0000   0.0000   0.2277
  11.400   1.1929   0.01852   0.01289   0.0116  0.0210  1.0000  -6.6963   0.0000   0.0000   0.0000   0.2274
  11.500   1.2013   0.01872   0.01309   0.0120  0.0207  1.0000  -6.7913   0.0000   0.0000   0.0000   0.2270
  11.600   1.2095   0.01893   0.01331   0.0124  0.0204  1.0000  -6.8859   0.0000   0.0000   0.0000   0.2266
  11.700   1.2174   0.01915   0.01354   0.0128  0.0201  1.0000  -6.9796   0.0000   0.0000   0.0000   0.2262
  11.800   1.2251   0.01940   0.01382   0.0132  0.0198  1.0000  -7.0713   0.0000   0.0000   0.0000   0.2258
  11.900   1.2322   0.01969   0.01411   0.0137  0.0195  1.0000  -7.1596   0.0000   0.0000   0.0000   0.2253
  12.000   1.2386   0.02003   0.01448   0.0143  0.0192  1.0000  -7.2421   0.0000   0.0000   0.0000   0.2247
  12.100   1.2439   0.02046   0.01493   0.0150  0.0188  1.0000  -7.3161   0.0000   0.0000   0.0000   0.2240
  12.200   1.2478   0.02099   0.01551   0.0159  0.0185  1.0000  -7.3787   0.0000   0.0000   0.0000   0.2232
  12.300   1.2494   0.02168   0.01626   0.0171  0.0181  1.0000  -7.4245   0.0000   0.0000   0.0000   0.2221
  12.400   1.2526   0.02223   0.01687   0.0180  0.0179  1.0000  -7.4837   0.0000   0.0000   0.0000   0.2213
  12.500   1.2598   0.02246   0.01712   0.0185  0.0178  1.0000  -7.5754   0.0000   0.0000   0.0000   0.2208
  12.600   1.2665   0.02270   0.01738   0.0190  0.0178  1.0000  -7.6649   0.0000   0.0000   0.0000   0.2203
  12.700   1.2726   0.02294   0.01765   0.0197  0.0177  1.0000  -7.7510   0.0000   0.0000   0.0000   0.2197
  12.800   1.2782   0.02320   0.01793   0.0204  0.0176  1.0000  -7.8350   0.0000   0.0000   0.0000   0.2191
  12.900   1.2836   0.02347   0.01823   0.0211  0.0175  1.0000  -7.9177   0.0000   0.0000   0.0000   0.2184
  13.000   1.2888   0.02376   0.01855   0.0218  0.0174  1.0000  -7.9992   0.0000   0.0000   0.0000   0.2178
  13.100   1.2937   0.02407   0.01888   0.0226  0.0173  1.0000  -8.0794   0.0000   0.0000   0.0000   0.2171
  13.200   1.2985   0.02439   0.01924   0.0233  0.0172  1.0000  -8.1584   0.0000   0.0000   0.0000   0.2164
  13.300   1.3031   0.02473   0.01961   0.0240  0.0171  1.0000  -8.2369   0.0000   0.0000   0.0000   0.2158
  13.400   1.3075   0.02509   0.02000   0.0247  0.0170  1.0000  -8.3142   0.0000   0.0000   0.0000   0.2152
  13.500   1.3117   0.02548   0.02041   0.0254  0.0168  1.0000  -8.3899   0.0000   0.0000   0.0000   0.2145
  13.600   1.3158   0.02588   0.02085   0.0260  0.0167  1.0000  -8.4650   0.0000   0.0000   0.0000   0.2139
  13.700   1.3197   0.02630   0.02130   0.0267  0.0166  1.0000  -8.5392   0.0000   0.0000   0.0000   0.2133
  13.800   1.3234   0.02674   0.02178   0.0273  0.0165  1.0000  -8.6123   0.0000   0.0000   0.0000   0.2127
  13.900   1.3270   0.02720   0.02228   0.0279  0.0163  1.0000  -8.6848   0.0000   0.0000   0.0000   0.2122
  14.000   1.3303   0.02769   0.02280   0.0284  0.0162  1.0000  -8.7554   0.0000   0.0000   0.0000   0.2116
  14.100   1.3335   0.02820   0.02335   0.0290  0.0161  1.0000  -8.8254   0.0000   0.0000   0.0000   0.2111
  14.200   1.3366   0.02874   0.02391   0.0295  0.0160  1.0000  -8.8948   0.0000   0.0000   0.0000   0.2106
  14.300   1.3395   0.02930   0.02452   0.0299  0.0158  1.0000  -8.9629   0.0000   0.0000   0.0000   0.2101
  14.400   1.3424   0.02989   0.02514   0.0303  0.0157  1.0000  -9.0308   0.0000   0.0000   0.0000   0.2096
  14.500   1.3449   0.03052   0.02580   0.0307  0.0156  1.0000  -9.0966   0.0000   0.0000   0.0000   0.2092
  14.600   1.3473   0.03117   0.02648   0.0310  0.0155  1.0000  -9.1616   0.0000   0.0000   0.0000   0.2088
  14.700   1.3494   0.03187   0.02721   0.0313  0.0154  1.0000  -9.2244   0.0000   0.0000   0.0000   0.2084
  14.800   1.3514   0.03259   0.02797   0.0315  0.0153  1.0000  -9.2868   0.0000   0.0000   0.0000   0.2081
  14.900   1.3532   0.03337   0.02879   0.0317  0.0152  1.0000  -9.3469   0.0000   0.0000   0.0000   0.2078
  15.000   1.3549   0.03419   0.02964   0.0318  0.0151  1.0000  -9.4063   0.0000   0.0000   0.0000   0.2075


