xflr5 v6.61

 Calculated polar for: NACA 4412

 1 1 Reynolds number fixed          Mach number fixed         

 xtrf =   1.000 (top)        1.000 (bottom)
 Mach =   0.000     Re =     1.600 e 6     Ncrit =   9.000

  alpha     CL        CD       CDp       Cm    Top Xtr Bot Xtr   Cpmin    Chinge    XCp    
 ------- -------- --------- --------- -------- ------- ------- -------- --------- ---------
 -15.000  -1.1133   0.03132   0.02843  -0.0962  1.0000  0.0117  -12.8343   0.0000   0.0000   0.0000   0.1452
 -14.900  -1.1185   0.03059   0.02766  -0.0948  1.0000  0.0117  -12.8183   0.0000   0.0000   0.0000   0.1471
 -14.800  -1.1226   0.02996   0.02699  -0.0933  1.0000  0.0117  -12.7913   0.0000   0.0000   0.0000   0.1489
 -14.700  -1.1256   0.02938   0.02637  -0.0918  1.0000  0.0117  -12.7545   0.0000   0.0000   0.0000   0.1507
 -14.600  -1.1210   0.02873   0.02567  -0.0918  0.9997  0.0118  -12.6634   0.0000   0.0000   0.0000   0.1505
 -14.500  -1.1117   0.02806   0.02495  -0.0925  0.9993  0.0118  -12.5392   0.0000   0.0000   0.0000   0.1493
 -14.400  -1.1022   0.02746   0.02430  -0.0932  0.9988  0.0119  -12.4111   0.0000   0.0000   0.0000   0.1481
 -14.300  -1.0923   0.02690   0.02370  -0.0939  0.9983  0.0119  -12.2800   0.0000   0.0000   0.0000   0.1469
 -14.200  -1.0821   0.02638   0.02314  -0.0945  0.9978  0.0120  -12.1467   0.0000   0.0000   0.0000   0.1456
 -14.100  -1.0731   0.02562   0.02231  -0.0953  0.9972  0.0120  -12.0321   0.0000   0.0000   0.0000   0.1443
 -14.000  -1.0662   0.02443   0.02104  -0.0963  0.9965  0.0122  -11.9490   0.0000   0.0000   0.0000   0.1430
 -13.900  -1.0572   0.02361   0.02016  -0.0970  0.9960  0.0123  -11.8379   0.0000   0.0000   0.0000   0.1416
 -13.800  -1.0472   0.02296   0.01946  -0.0977  0.9956  0.0124  -11.7137   0.0000   0.0000   0.0000   0.1402
 -13.700  -1.0366   0.02241   0.01888  -0.0984  0.9953  0.0125  -11.5815   0.0000   0.0000   0.0000   0.1387
 -13.600  -1.0266   0.02195   0.01839  -0.0987  0.9946  0.0126  -11.4518   0.0000   0.0000   0.0000   0.1376
 -13.500  -1.0165   0.02153   0.01794  -0.0991  0.9938  0.0127  -11.3196   0.0000   0.0000   0.0000   0.1364
 -13.400  -1.0059   0.02115   0.01752  -0.0994  0.9931  0.0127  -11.1841   0.0000   0.0000   0.0000   0.1351
 -13.300  -0.9950   0.02078   0.01713  -0.0999  0.9925  0.0128  -11.0466   0.0000   0.0000   0.0000   0.1337
 -13.200  -0.9838   0.02043   0.01675  -0.1003  0.9919  0.0129  -10.9079   0.0000   0.0000   0.0000   0.1323
 -13.100  -0.9724   0.02009   0.01639  -0.1007  0.9913  0.0130  -10.7687   0.0000   0.0000   0.0000   0.1307
 -13.000  -0.9609   0.01976   0.01603  -0.1012  0.9908  0.0131  -10.6291   0.0000   0.0000   0.0000   0.1291
 -12.900  -0.9492   0.01944   0.01568  -0.1017  0.9904  0.0132  -10.4892   0.0000   0.0000   0.0000   0.1274
 -12.800  -0.9374   0.01912   0.01533  -0.1022  0.9899  0.0133  -10.3493   0.0000   0.0000   0.0000   0.1256
 -12.700  -0.9255   0.01881   0.01499  -0.1027  0.9895  0.0134  -10.2096   0.0000   0.0000   0.0000   0.1238
 -12.600  -0.9134   0.01851   0.01466  -0.1032  0.9892  0.0135  -10.0699   0.0000   0.0000   0.0000   0.1218
 -12.500  -0.9012   0.01821   0.01433  -0.1038  0.9889  0.0136  -9.9302   0.0000   0.0000   0.0000   0.1198
 -12.400  -0.8889   0.01792   0.01401  -0.1043  0.9886  0.0137  -9.7905   0.0000   0.0000   0.0000   0.1177
 -12.300  -0.8765   0.01764   0.01370  -0.1048  0.9883  0.0138  -9.6508   0.0000   0.0000   0.0000   0.1155
 -12.200  -0.8640   0.01738   0.01340  -0.1054  0.9880  0.0139  -9.5153   0.0000   0.0000   0.0000   0.1132
 -12.100  -0.8515   0.01713   0.01312  -0.1059  0.9877  0.0140  -9.3829   0.0000   0.0000   0.0000   0.1108
 -12.000  -0.8390   0.01689   0.01286  -0.1064  0.9874  0.0141  -9.2508   0.0000   0.0000   0.0000   0.1085
 -11.900  -0.8273   0.01668   0.01262  -0.1067  0.9867  0.0141  -9.1234   0.0000   0.0000   0.0000   0.1064
 -11.800  -0.8177   0.01640   0.01230  -0.1066  0.9851  0.0142  -9.0125   0.0000   0.0000   0.0000   0.1051
 -11.700  -0.8082   0.01589   0.01175  -0.1067  0.9836  0.0144  -8.9126   0.0000   0.0000   0.0000   0.1035
 -11.600  -0.7975   0.01554   0.01137  -0.1070  0.9825  0.0146  -8.7982   0.0000   0.0000   0.0000   0.1015
 -11.500  -0.7863   0.01526   0.01107  -0.1072  0.9815  0.0148  -8.6777   0.0000   0.0000   0.0000   0.0994
 -11.400  -0.7749   0.01502   0.01081  -0.1075  0.9806  0.0149  -8.5544   0.0000   0.0000   0.0000   0.0971
 -11.300  -0.7634   0.01481   0.01059  -0.1077  0.9797  0.0151  -8.4303   0.0000   0.0000   0.0000   0.0948
 -11.200  -0.7519   0.01462   0.01039  -0.1079  0.9788  0.0152  -8.3065   0.0000   0.0000   0.0000   0.0924
 -11.100  -0.7403   0.01444   0.01019  -0.1081  0.9780  0.0154  -8.1826   0.0000   0.0000   0.0000   0.0899
 -11.000  -0.7305   0.01428   0.01001  -0.1079  0.9761  0.0155  -8.0698   0.0000   0.0000   0.0000   0.0883
 -10.900  -0.7206   0.01412   0.00983  -0.1078  0.9742  0.0157  -7.9570   0.0000   0.0000   0.0000   0.0866
 -10.800  -0.7103   0.01395   0.00964  -0.1077  0.9725  0.0158  -7.8431   0.0000   0.0000   0.0000   0.0846
 -10.700  -0.6999   0.01379   0.00945  -0.1076  0.9708  0.0160  -7.7298   0.0000   0.0000   0.0000   0.0825
 -10.600  -0.6893   0.01362   0.00927  -0.1075  0.9694  0.0161  -7.6169   0.0000   0.0000   0.0000   0.0803
 -10.500  -0.6786   0.01346   0.00908  -0.1075  0.9681  0.0163  -7.5035   0.0000   0.0000   0.0000   0.0779
 -10.400  -0.6684   0.01331   0.00891  -0.1074  0.9663  0.0164  -7.3935   0.0000   0.0000   0.0000   0.0758
 -10.300  -0.6584   0.01318   0.00875  -0.1072  0.9640  0.0165  -7.2851   0.0000   0.0000   0.0000   0.0737
 -10.200  -0.6483   0.01305   0.00860  -0.1070  0.9619  0.0166  -7.1759   0.0000   0.0000   0.0000   0.0715
 -10.100  -0.6387   0.01279   0.00831  -0.1068  0.9599  0.0168  -7.0761   0.0000   0.0000   0.0000   0.0694
 -10.000  -0.6290   0.01251   0.00799  -0.1067  0.9580  0.0170  -6.9767   0.0000   0.0000   0.0000   0.0671
  -9.800  -0.6088   0.01214   0.00760  -0.1064  0.9540  0.0174  -6.7654   0.0000   0.0000   0.0000   0.0620
  -9.700  -0.5986   0.01199   0.00744  -0.1062  0.9515  0.0176  -6.6590   0.0000   0.0000   0.0000   0.0594
  -9.600  -0.5883   0.01186   0.00729  -0.1061  0.9491  0.0178  -6.5524   0.0000   0.0000   0.0000   0.0566
  -9.500  -0.5780   0.01173   0.00714  -0.1059  0.9467  0.0180  -6.4461   0.0000   0.0000   0.0000   0.0536
  -9.400  -0.5675   0.01161   0.00699  -0.1058  0.9444  0.0182  -6.3401   0.0000   0.0000   0.0000   0.0505
  -9.300  -0.5571   0.01148   0.00685  -0.1057  0.9414  0.0184  -6.2355   0.0000   0.0000   0.0000   0.0473
  -9.200  -0.5467   0.01136   0.00671  -0.1055  0.9383  0.0186  -6.1314   0.0000   0.0000   0.0000   0.0440
  -9.100  -0.5362   0.01125   0.00657  -0.1054  0.9355  0.0188  -6.0277   0.0000   0.0000   0.0000   0.0405
  -9.000  -0.5256   0.01114   0.00644  -0.1052  0.9329  0.0190  -5.9295   0.0000   0.0000   0.0000   0.0368
  -8.900  -0.5148   0.01104   0.00632  -0.1052  0.9301  0.0192  -5.8313   0.0000   0.0000   0.0000   0.0327
  -8.800  -0.5040   0.01095   0.00621  -0.1051  0.9273  0.0193  -5.7329   0.0000   0.0000   0.0000   0.0285
  -8.700  -0.4939   0.01070   0.00593  -0.1050  0.9246  0.0197  -5.6453   0.0000   0.0000   0.0000   0.0245
  -8.600  -0.4834   0.01055   0.00576  -0.1049  0.9222  0.0201  -5.5508   0.0000   0.0000   0.0000   0.0200
  -8.400  -0.4617   0.01032   0.00551  -0.1048  0.9178  0.0207  -5.3574   0.0000   0.0000   0.0000   0.0100
  -8.300  -0.4507   0.01023   0.00540  -0.1048  0.9152  0.0209  -5.2611   0.0000   0.0000   0.0000   0.0045
  -8.200  -0.4398   0.01013   0.00529  -0.1047  0.9125  0.0212  -5.1660   0.0000   0.0000   0.0000  -0.0012
  -8.100  -0.4289   0.01004   0.00518  -0.1047  0.9100  0.0215  -5.0719   0.0000   0.0000   0.0000  -0.0072
  -7.900  -0.4068   0.00987   0.00497  -0.1046  0.9051  0.0220  -4.8851   0.0000   0.0000   0.0000  -0.0203
  -7.800  -0.3957   0.00980   0.00488  -0.1046  0.9023  0.0222  -4.7918   0.0000   0.0000   0.0000  -0.0276
  -7.700  -0.3851   0.00962   0.00467  -0.1045  0.8995  0.0227  -4.7057   0.0000   0.0000   0.0000  -0.0348
  -7.600  -0.3742   0.00949   0.00453  -0.1044  0.8969  0.0231  -4.6164   0.0000   0.0000   0.0000  -0.0426
  -7.500  -0.3633   0.00939   0.00442  -0.1044  0.8945  0.0235  -4.5260   0.0000   0.0000   0.0000  -0.0509
  -7.400  -0.3522   0.00930   0.00432  -0.1044  0.8918  0.0239  -4.4351   0.0000   0.0000   0.0000  -0.0601
  -7.300  -0.3410   0.00922   0.00423  -0.1044  0.8888  0.0243  -4.3450   0.0000   0.0000   0.0000  -0.0699
  -7.200  -0.3299   0.00914   0.00414  -0.1043  0.8859  0.0247  -4.2559   0.0000   0.0000   0.0000  -0.0802
  -7.100  -0.3189   0.00908   0.00405  -0.1043  0.8831  0.0250  -4.1675   0.0000   0.0000   0.0000  -0.0912
  -7.000  -0.3077   0.00902   0.00397  -0.1043  0.8803  0.0254  -4.0789   0.0000   0.0000   0.0000  -0.1033
  -6.900  -0.2966   0.00891   0.00385  -0.1043  0.8772  0.0259  -3.9935   0.0000   0.0000   0.0000  -0.1161
  -6.800  -0.2856   0.00879   0.00372  -0.1042  0.8739  0.0265  -3.9089   0.0000   0.0000   0.0000  -0.1296
  -6.700  -0.2746   0.00871   0.00363  -0.1042  0.8708  0.0271  -3.8262   0.0000   0.0000   0.0000  -0.1444
  -6.600  -0.2635   0.00864   0.00354  -0.1042  0.8679  0.0276  -3.7454   0.0000   0.0000   0.0000  -0.1607
  -6.500  -0.2522   0.00858   0.00347  -0.1042  0.8648  0.0281  -3.6650   0.0000   0.0000   0.0000  -0.1786
  -6.400  -0.2410   0.00852   0.00339  -0.1042  0.8615  0.0286  -3.5855   0.0000   0.0000   0.0000  -0.1982
  -6.300  -0.2298   0.00847   0.00332  -0.1041  0.8583  0.0290  -3.5067   0.0000   0.0000   0.0000  -0.2195
  -6.200  -0.2187   0.00838   0.00321  -0.1041  0.8553  0.0297  -3.4306   0.0000   0.0000   0.0000  -0.2427
  -6.100  -0.2076   0.00828   0.00311  -0.1041  0.8519  0.0304  -3.3540   0.0000   0.0000   0.0000  -0.2688
  -6.000  -0.1964   0.00821   0.00303  -0.1041  0.8483  0.0311  -3.2769   0.0000   0.0000   0.0000  -0.2977
  -5.900  -0.1853   0.00816   0.00296  -0.1040  0.8448  0.0318  -3.2004   0.0000   0.0000   0.0000  -0.3300
  -5.800  -0.1740   0.00811   0.00290  -0.1040  0.8415  0.0325  -3.1240   0.0000   0.0000   0.0000  -0.3671
  -5.700  -0.1626   0.00807   0.00284  -0.1040  0.8377  0.0331  -3.0480   0.0000   0.0000   0.0000  -0.4097
  -5.600  -0.1516   0.00798   0.00274  -0.1040  0.8340  0.0341  -2.9752   0.0000   0.0000   0.0000  -0.4572
  -5.500  -0.1405   0.00791   0.00266  -0.1040  0.8305  0.0350  -2.9019   0.0000   0.0000   0.0000  -0.5121
  -5.400  -0.1291   0.00785   0.00260  -0.1040  0.8270  0.0359  -2.8281   0.0000   0.0000   0.0000  -0.5785
  -5.300  -0.1179   0.00780   0.00254  -0.1040  0.8231  0.0368  -2.7550   0.0000   0.0000   0.0000  -0.6571
  -5.200  -0.1067   0.00777   0.00248  -0.1040  0.8194  0.0375  -2.6845   0.0000   0.0000   0.0000  -0.7515
  -5.100  -0.0954   0.00771   0.00240  -0.1040  0.8157  0.0386  -2.6181   0.0000   0.0000   0.0000  -0.8685
  -5.000  -0.0842   0.00764   0.00234  -0.1040  0.8117  0.0398  -2.5516   0.0000   0.0000   0.0000  -1.0169
  -4.900  -0.0730   0.00759   0.00228  -0.1039  0.8075  0.0410  -2.4853   0.0000   0.0000   0.0000  -1.2094
  -4.800  -0.0618   0.00756   0.00223  -0.1039  0.8037  0.0421  -2.4194   0.0000   0.0000   0.0000  -1.4739
  -4.700  -0.0504   0.00752   0.00218  -0.1039  0.7995  0.0430  -2.3539   0.0000   0.0000   0.0000  -1.8618
  -4.600  -0.0393   0.00746   0.00211  -0.1039  0.7952  0.0448  -2.2904   0.0000   0.0000   0.0000  -2.4574
  -4.500  -0.0281   0.00741   0.00205  -0.1039  0.7912  0.0463  -2.2266   0.0000   0.0000   0.0000  -3.5311
  -4.400  -0.0167   0.00737   0.00201  -0.1039  0.7870  0.0476  -2.1627   0.0000   0.0000   0.0000  -6.0968
  -4.300  -0.0055   0.00735   0.00196  -0.1039  0.7825  0.0486  -2.1006   0.0000   0.0000   0.0000  -19.2120
  -4.200   0.0057   0.00729   0.00190  -0.1039  0.7784  0.0509  -2.0431   0.0000   0.0000   0.0000  18.9552
  -4.100   0.0170   0.00725   0.00186  -0.1039  0.7739  0.0528  -1.9848   0.0000   0.0000   0.0000   6.4869
  -4.000   0.0282   0.00722   0.00182  -0.1039  0.7693  0.0545  -1.9271   0.0000   0.0000   0.0000   4.0019
  -3.900   0.0394   0.00719   0.00177  -0.1038  0.7649  0.0564  -1.8704   0.0000   0.0000   0.0000   2.9322
  -3.800   0.0507   0.00714   0.00173  -0.1039  0.7602  0.0589  -1.8139   0.0000   0.0000   0.0000   2.3347
  -3.700   0.0619   0.00712   0.00169  -0.1038  0.7554  0.0611  -1.7580   0.0000   0.0000   0.0000   1.9568
  -3.600   0.0732   0.00710   0.00165  -0.1038  0.7510  0.0629  -1.7023   0.0000   0.0000   0.0000   1.6921
  -3.500   0.0844   0.00705   0.00161  -0.1038  0.7461  0.0662  -1.6475   0.0000   0.0000   0.0000   1.4995
  -3.300   0.1069   0.00700   0.00154  -0.1038  0.7366  0.0711  -1.5449   0.0000   0.0000   0.0000   1.2353
  -3.200   0.1181   0.00696   0.00151  -0.1038  0.7315  0.0748  -1.4950   0.0000   0.0000   0.0000   1.1414
  -3.100   0.1293   0.00694   0.00147  -0.1038  0.7268  0.0780  -1.4454   0.0000   0.0000   0.0000   1.0637
  -3.000   0.1406   0.00692   0.00144  -0.1038  0.7217  0.0810  -1.3959   0.0000   0.0000   0.0000   0.9977
  -2.900   0.1518   0.00689   0.00142  -0.1038  0.7166  0.0853  -1.3474   0.0000   0.0000   0.0000   0.9424
  -2.800   0.1630   0.00687   0.00139  -0.1038  0.7118  0.0887  -1.2988   0.0000   0.0000   0.0000   0.8941
  -2.700   0.1743   0.00685   0.00136  -0.1038  0.7065  0.0929  -1.2510   0.0000   0.0000   0.0000   0.8521
  -2.600   0.1854   0.00683   0.00134  -0.1038  0.7015  0.0972  -1.2064   0.0000   0.0000   0.0000   0.8156
  -2.500   0.1967   0.00681   0.00131  -0.1038  0.6962  0.1010  -1.1620   0.0000   0.0000   0.0000   0.7827
  -2.400   0.2079   0.00679   0.00129  -0.1038  0.6909  0.1066  -1.1186   0.0000   0.0000   0.0000   0.7538
  -2.300   0.2191   0.00677   0.00127  -0.1038  0.6860  0.1109  -1.0752   0.0000   0.0000   0.0000   0.7276
  -2.200   0.2303   0.00675   0.00126  -0.1038  0.6806  0.1167  -1.0337   0.0000   0.0000   0.0000   0.7041
  -2.100   0.2415   0.00674   0.00124  -0.1037  0.6754  0.1219  -0.9940   0.0000   0.0000   0.0000   0.6828
  -2.000   0.2528   0.00672   0.00122  -0.1037  0.6701  0.1279  -0.9545   0.0000   0.0000   0.0000   0.6633
  -1.900   0.2639   0.00671   0.00121  -0.1037  0.6646  0.1336  -0.9155   0.0000   0.0000   0.0000   0.6455
  -1.800   0.2752   0.00669   0.00119  -0.1037  0.6595  0.1398  -0.8767   0.0000   0.0000   0.0000   0.6291
  -1.700   0.2864   0.00668   0.00118  -0.1037  0.6540  0.1462  -0.8396   0.0000   0.0000   0.0000   0.6141
  -1.600   0.2975   0.00667   0.00117  -0.1037  0.6490  0.1532  -0.8041   0.0000   0.0000   0.0000   0.6002
  -1.500   0.3088   0.00666   0.00116  -0.1037  0.6435  0.1597  -0.7686   0.0000   0.0000   0.0000   0.5872
  -1.300   0.3311   0.00664   0.00115  -0.1037  0.6329  0.1748  -0.6990   0.0000   0.0000   0.0000   0.5640
  -1.200   0.3423   0.00663   0.00115  -0.1037  0.6274  0.1831  -0.6761   0.0000   0.0000   0.0000   0.5536
  -1.100   0.3535   0.00662   0.00114  -0.1037  0.6225  0.1911  -0.6841   0.0000   0.0000   0.0000   0.5438
  -0.900   0.3757   0.00661   0.00114  -0.1037  0.6118  0.2086  -0.7002   0.0000   0.0000   0.0000   0.5259
  -0.800   0.3870   0.00660   0.00114  -0.1037  0.6068  0.2175  -0.7085   0.0000   0.0000   0.0000   0.5177
  -0.700   0.3982   0.00660   0.00114  -0.1037  0.6014  0.2267  -0.7167   0.0000   0.0000   0.0000   0.5100
  -0.600   0.4093   0.00659   0.00114  -0.1037  0.5967  0.2370  -0.7250   0.0000   0.0000   0.0000   0.5028
  -0.500   0.4206   0.00658   0.00114  -0.1037  0.5915  0.2475  -0.7333   0.0000   0.0000   0.0000   0.4959
  -0.300   0.4429   0.00657   0.00115  -0.1037  0.5817  0.2694  -0.7503   0.0000   0.0000   0.0000   0.4832
  -0.200   0.4540   0.00656   0.00116  -0.1037  0.5767  0.2810  -0.7589   0.0000   0.0000   0.0000   0.4773
   0.000   0.4764   0.00654   0.00118  -0.1037  0.5674  0.3069  -0.7760   0.0000   0.0000   0.0000   0.4663
   0.100   0.4875   0.00654   0.00119  -0.1037  0.5626  0.3211  -0.7849   0.0000   0.0000   0.0000   0.4612
   0.200   0.4986   0.00652   0.00120  -0.1037  0.5583  0.3370  -0.7937   0.0000   0.0000   0.0000   0.4563
   0.300   0.5098   0.00650   0.00121  -0.1038  0.5538  0.3547  -0.8027   0.0000   0.0000   0.0000   0.4517
   0.500   0.5318   0.00644   0.00123  -0.1038  0.5452  0.4006  -0.8204   0.0000   0.0000   0.0000   0.4430
   0.600   0.5428   0.00635   0.00125  -0.1038  0.5410  0.4420  -0.8296   0.0000   0.0000   0.0000   0.4390
   0.700   0.5535   0.00626   0.00128  -0.1038  0.5368  0.4931  -0.8387   0.0000   0.0000   0.0000   0.4351
   0.800   0.5643   0.00618   0.00130  -0.1038  0.5330  0.5417  -0.8477   0.0000   0.0000   0.0000   0.4314
   0.900   0.5753   0.00610   0.00133  -0.1038  0.5291  0.5860  -0.8569   0.0000   0.0000   0.0000   0.4278
   1.000   0.5860   0.00603   0.00135  -0.1037  0.5251  0.6271  -0.8663   0.0000   0.0000   0.0000   0.4243
   1.100   0.5966   0.00598   0.00139  -0.1036  0.5214  0.6680  -0.8757   0.0000   0.0000   0.0000   0.4209
   1.200   0.6074   0.00590   0.00141  -0.1036  0.5180  0.7095  -0.8852   0.0000   0.0000   0.0000   0.4176
   1.300   0.6180   0.00582   0.00144  -0.1034  0.5143  0.7516  -0.8945   0.0000   0.0000   0.0000   0.4144
   1.400   0.6281   0.00575   0.00148  -0.1032  0.5107  0.7961  -0.9039   0.0000   0.0000   0.0000   0.4112
   1.500   0.6377   0.00567   0.00152  -0.1028  0.5075  0.8432  -0.9131   0.0000   0.0000   0.0000   0.4080
   1.600   0.6464   0.00557   0.00156  -0.1022  0.5045  0.8906  -0.9219   0.0000   0.0000   0.0000   0.4047
   1.700   0.6542   0.00552   0.00159  -0.1013  0.5013  0.9350  -0.9301   0.0000   0.0000   0.0000   0.4014
   1.800   0.6666   0.00552   0.00162  -0.1014  0.4978  0.9692  -0.9412   0.0000   0.0000   0.0000   0.3986
   1.900   0.6829   0.00555   0.00164  -0.1026  0.4945  0.9871  -0.9548   0.0000   0.0000   0.0000   0.3965
   2.000   0.6995   0.00558   0.00165  -0.1038  0.4912  0.9969  -0.9686   0.0000   0.0000   0.0000   0.3946
   2.100   0.7128   0.00561   0.00167  -0.1043  0.4879  1.0000  -0.9806   0.0000   0.0000   0.0000   0.3924
   2.200   0.7235   0.00566   0.00169  -0.1042  0.4848  1.0000  -0.9914   0.0000   0.0000   0.0000   0.3900
   2.300   0.7343   0.00570   0.00171  -0.1041  0.4819  1.0000  -1.0022   0.0000   0.0000   0.0000   0.3877
   2.400   0.7453   0.00573   0.00173  -0.1040  0.4792  1.0000  -1.0132   0.0000   0.0000   0.0000   0.3854
   2.500   0.7563   0.00577   0.00176  -0.1040  0.4763  1.0000  -1.0245   0.0000   0.0000   0.0000   0.3832
   2.600   0.7671   0.00581   0.00178  -0.1039  0.4733  1.0000  -1.0358   0.0000   0.0000   0.0000   0.3811
   2.700   0.7779   0.00586   0.00181  -0.1038  0.4704  1.0000  -1.0471   0.0000   0.0000   0.0000   0.3790
   2.800   0.7889   0.00589   0.00183  -0.1038  0.4679  1.0000  -1.0590   0.0000   0.0000   0.0000   0.3770
   2.900   0.8000   0.00592   0.00186  -0.1038  0.4652  1.0000  -1.0710   0.0000   0.0000   0.0000   0.3751
   3.000   0.8109   0.00596   0.00188  -0.1037  0.4623  1.0000  -1.0831   0.0000   0.0000   0.0000   0.3731
   3.100   0.8218   0.00601   0.00191  -0.1037  0.4594  1.0000  -1.0955   0.0000   0.0000   0.0000   0.3713
   3.200   0.8326   0.00606   0.00195  -0.1036  0.4566  1.0000  -1.1079   0.0000   0.0000   0.0000   0.3694
   3.300   0.8438   0.00609   0.00197  -0.1036  0.4541  1.0000  -1.1210   0.0000   0.0000   0.0000   0.3677
   3.400   0.8548   0.00613   0.00200  -0.1036  0.4513  1.0000  -1.1341   0.0000   0.0000   0.0000   0.3660
   3.500   0.8657   0.00617   0.00203  -0.1035  0.4484  1.0000  -1.1476   0.0000   0.0000   0.0000   0.3643
   3.600   0.8764   0.00623   0.00207  -0.1034  0.4453  1.0000  -1.1611   0.0000   0.0000   0.0000   0.3626
   3.700   0.8875   0.00627   0.00210  -0.1034  0.4427  1.0000  -1.1755   0.0000   0.0000   0.0000   0.3610
   3.800   0.8985   0.00630   0.00213  -0.1034  0.4398  1.0000  -1.1902   0.0000   0.0000   0.0000   0.3594
   3.900   0.9095   0.00635   0.00216  -0.1034  0.4366  1.0000  -1.2054   0.0000   0.0000   0.0000   0.3579
   4.000   0.9202   0.00641   0.00220  -0.1033  0.4333  1.0000  -1.2212   0.0000   0.0000   0.0000   0.3564
   4.100   0.9311   0.00646   0.00224  -0.1032  0.4301  1.0000  -1.2382   0.0000   0.0000   0.0000   0.3549
   4.200   0.9421   0.00649   0.00227  -0.1032  0.4268  1.0000  -1.2571   0.0000   0.0000   0.0000   0.3535
   4.300   0.9530   0.00655   0.00231  -0.1032  0.4229  1.0000  -1.2797   0.0000   0.0000   0.0000   0.3521
   4.500   0.9746   0.00665   0.00239  -0.1030  0.4151  1.0000  -1.3338   0.0000   0.0000   0.0000   0.3493
   4.600   0.9854   0.00671   0.00243  -0.1030  0.4105  1.0000  -1.3643   0.0000   0.0000   0.0000   0.3480
   4.700   0.9959   0.00679   0.00247  -0.1029  0.4059  1.0000  -1.3955   0.0000   0.0000   0.0000   0.3467
   4.800   1.0068   0.00683   0.00251  -0.1029  0.4015  1.0000  -1.4293   0.0000   0.0000   0.0000   0.3454
   4.900   1.0175   0.00689   0.00256  -0.1028  0.3963  1.0000  -1.4635   0.0000   0.0000   0.0000   0.3442
   5.000   1.0281   0.00696   0.00260  -0.1027  0.3916  1.0000  -1.4996   0.0000   0.0000   0.0000   0.3429
   5.100   1.0388   0.00702   0.00265  -0.1026  0.3864  1.0000  -1.5375   0.0000   0.0000   0.0000   0.3417
   5.200   1.0492   0.00711   0.00270  -0.1025  0.3809  1.0000  -1.5750   0.0000   0.0000   0.0000   0.3405
   5.300   1.0599   0.00716   0.00275  -0.1024  0.3756  1.0000  -1.6140   0.0000   0.0000   0.0000   0.3393
   5.400   1.0702   0.00726   0.00281  -0.1023  0.3695  1.0000  -1.6540   0.0000   0.0000   0.0000   0.3381
   5.500   1.0808   0.00732   0.00286  -0.1022  0.3639  1.0000  -1.6957   0.0000   0.0000   0.0000   0.3370
   5.600   1.0910   0.00742   0.00293  -0.1021  0.3573  1.0000  -1.7382   0.0000   0.0000   0.0000   0.3359
   5.700   1.1014   0.00750   0.00298  -0.1019  0.3512  1.0000  -1.7816   0.0000   0.0000   0.0000   0.3348
   5.900   1.1217   0.00770   0.00312  -0.1016  0.3371  1.0000  -1.8717   0.0000   0.0000   0.0000   0.3326
   6.000   1.1317   0.00781   0.00320  -0.1015  0.3299  1.0000  -1.9174   0.0000   0.0000   0.0000   0.3315
   6.100   1.1417   0.00792   0.00327  -0.1013  0.3221  1.0000  -1.9635   0.0000   0.0000   0.0000   0.3304
   6.200   1.1517   0.00803   0.00335  -0.1011  0.3145  1.0000  -2.0099   0.0000   0.0000   0.0000   0.3294
   6.300   1.1613   0.00817   0.00344  -0.1009  0.3063  1.0000  -2.0580   0.0000   0.0000   0.0000   0.3283
   6.400   1.1710   0.00829   0.00353  -0.1006  0.2973  1.0000  -2.1069   0.0000   0.0000   0.0000   0.3273
   6.500   1.1807   0.00843   0.00363  -0.1004  0.2881  1.0000  -2.1560   0.0000   0.0000   0.0000   0.3263
   6.600   1.1901   0.00858   0.00373  -0.1001  0.2787  1.0000  -2.2064   0.0000   0.0000   0.0000   0.3252
   6.700   1.1994   0.00874   0.00384  -0.0999  0.2689  1.0000  -2.2579   0.0000   0.0000   0.0000   0.3242
   6.800   1.2085   0.00891   0.00396  -0.0995  0.2584  1.0000  -2.3094   0.0000   0.0000   0.0000   0.3232
   6.900   1.2175   0.00908   0.00407  -0.0992  0.2478  1.0000  -2.3612   0.0000   0.0000   0.0000   0.3222
   7.000   1.2265   0.00926   0.00420  -0.0989  0.2369  1.0000  -2.4132   0.0000   0.0000   0.0000   0.3212
   7.100   1.2354   0.00945   0.00433  -0.0985  0.2256  1.0000  -2.4657   0.0000   0.0000   0.0000   0.3202
   7.200   1.2441   0.00965   0.00446  -0.0981  0.2144  1.0000  -2.5203   0.0000   0.0000   0.0000   0.3192
   7.300   1.2527   0.00985   0.00461  -0.0978  0.2032  1.0000  -2.5751   0.0000   0.0000   0.0000   0.3182
   7.400   1.2611   0.01006   0.00476  -0.0973  0.1919  1.0000  -2.6298   0.0000   0.0000   0.0000   0.3172
   7.500   1.2694   0.01028   0.00491  -0.0969  0.1804  1.0000  -2.6844   0.0000   0.0000   0.0000   0.3162
   7.600   1.2776   0.01050   0.00507  -0.0964  0.1689  1.0000  -2.7390   0.0000   0.0000   0.0000   0.3153
   7.700   1.2857   0.01073   0.00524  -0.0960  0.1578  1.0000  -2.7938   0.0000   0.0000   0.0000   0.3143
   7.800   1.2937   0.01096   0.00541  -0.0955  0.1472  1.0000  -2.8488   0.0000   0.0000   0.0000   0.3133
   7.900   1.3018   0.01119   0.00557  -0.0950  0.1371  1.0000  -2.9042   0.0000   0.0000   0.0000   0.3123
   8.000   1.3097   0.01142   0.00575  -0.0945  0.1275  1.0000  -2.9615   0.0000   0.0000   0.0000   0.3114
   8.100   1.3176   0.01165   0.00592  -0.0940  0.1185  1.0000  -3.0200   0.0000   0.0000   0.0000   0.3104
   8.200   1.3254   0.01188   0.00610  -0.0935  0.1099  1.0000  -3.0785   0.0000   0.0000   0.0000   0.3095
   8.300   1.3333   0.01210   0.00628  -0.0930  0.1021  1.0000  -3.1381   0.0000   0.0000   0.0000   0.3086
   8.400   1.3415   0.01229   0.00644  -0.0925  0.0956  1.0000  -3.1989   0.0000   0.0000   0.0000   0.3077
   8.500   1.3493   0.01251   0.00661  -0.0920  0.0892  1.0000  -3.2588   0.0000   0.0000   0.0000   0.3067
   8.600   1.3572   0.01272   0.00679  -0.0915  0.0831  1.0000  -3.3193   0.0000   0.0000   0.0000   0.3058
   8.700   1.3653   0.01291   0.00695  -0.0911  0.0780  1.0000  -3.3810   0.0000   0.0000   0.0000   0.3049
   8.900   1.3810   0.01331   0.00730  -0.0900  0.0686  1.0000  -3.5090   0.0000   0.0000   0.0000   0.3031
   9.000   1.3885   0.01353   0.00748  -0.0895  0.0642  1.0000  -3.5729   0.0000   0.0000   0.0000   0.3022
   9.100   1.3967   0.01369   0.00764  -0.0890  0.0611  1.0000  -3.6401   0.0000   0.0000   0.0000   0.3014
   9.200   1.4041   0.01390   0.00782  -0.0885  0.0576  1.0000  -3.7049   0.0000   0.0000   0.0000   0.3005
   9.300   1.4121   0.01407   0.00798  -0.0880  0.0549  1.0000  -3.7719   0.0000   0.0000   0.0000   0.2996
   9.400   1.4196   0.01426   0.00815  -0.0874  0.0522  1.0000  -3.8379   0.0000   0.0000   0.0000   0.2988
   9.500   1.4267   0.01446   0.00834  -0.0868  0.0494  1.0000  -3.9025   0.0000   0.0000   0.0000   0.2979
   9.600   1.4339   0.01462   0.00849  -0.0861  0.0474  1.0000  -3.9684   0.0000   0.0000   0.0000   0.2970
   9.700   1.4404   0.01481   0.00868  -0.0854  0.0452  1.0000  -4.0319   0.0000   0.0000   0.0000   0.2960
   9.800   1.4468   0.01501   0.00886  -0.0846  0.0431  1.0000  -4.0970   0.0000   0.0000   0.0000   0.2951
   9.900   1.4539   0.01518   0.00903  -0.0840  0.0416  1.0000  -4.1670   0.0000   0.0000   0.0000   0.2942
  10.000   1.4604   0.01538   0.00922  -0.0832  0.0399  1.0000  -4.2350   0.0000   0.0000   0.0000   0.2933
  10.100   1.4666   0.01559   0.00942  -0.0824  0.0382  1.0000  -4.3018   0.0000   0.0000   0.0000   0.2923
  10.200   1.4737   0.01577   0.00960  -0.0818  0.0370  1.0000  -4.3729   0.0000   0.0000   0.0000   0.2915
  10.300   1.4804   0.01595   0.00980  -0.0811  0.0358  1.0000  -4.4432   0.0000   0.0000   0.0000   0.2906
  10.400   1.4866   0.01617   0.01001  -0.0804  0.0345  1.0000  -4.5116   0.0000   0.0000   0.0000   0.2897
  10.500   1.4926   0.01641   0.01024  -0.0796  0.0331  1.0000  -4.5790   0.0000   0.0000   0.0000   0.2888
  10.600   1.4995   0.01659   0.01043  -0.0790  0.0322  1.0000  -4.6514   0.0000   0.0000   0.0000   0.2880
  10.700   1.5061   0.01679   0.01063  -0.0783  0.0313  1.0000  -4.7225   0.0000   0.0000   0.0000   0.2872
  10.800   1.5123   0.01702   0.01086  -0.0776  0.0303  1.0000  -4.7922   0.0000   0.0000   0.0000   0.2863
  10.900   1.5180   0.01727   0.01111  -0.0769  0.0292  1.0000  -4.8604   0.0000   0.0000   0.0000   0.2855
  11.000   1.5241   0.01751   0.01135  -0.0761  0.0284  1.0000  -4.9304   0.0000   0.0000   0.0000   0.2846
  11.100   1.5307   0.01771   0.01156  -0.0755  0.0278  1.0000  -5.0034   0.0000   0.0000   0.0000   0.2838
  11.200   1.5370   0.01794   0.01180  -0.0749  0.0271  1.0000  -5.0752   0.0000   0.0000   0.0000   0.2830
  11.300   1.5429   0.01819   0.01205  -0.0742  0.0264  1.0000  -5.1455   0.0000   0.0000   0.0000   0.2822
  11.400   1.5483   0.01847   0.01233  -0.0734  0.0257  1.0000  -5.2145   0.0000   0.0000   0.0000   0.2814
  11.500   1.5535   0.01877   0.01264  -0.0726  0.0249  1.0000  -5.2820   0.0000   0.0000   0.0000   0.2806
  11.600   1.5597   0.01900   0.01289  -0.0720  0.0244  1.0000  -5.3584   0.0000   0.0000   0.0000   0.2798
  11.700   1.5658   0.01925   0.01314  -0.0714  0.0240  1.0000  -5.4351   0.0000   0.0000   0.0000   0.2790
  11.800   1.5717   0.01951   0.01341  -0.0707  0.0234  1.0000  -5.5108   0.0000   0.0000   0.0000   0.2783
  11.900   1.5772   0.01980   0.01371  -0.0700  0.0229  1.0000  -5.5852   0.0000   0.0000   0.0000   0.2775
  12.000   1.5823   0.02011   0.01403  -0.0693  0.0224  1.0000  -5.6581   0.0000   0.0000   0.0000   0.2767
  12.100   1.5870   0.02046   0.01438  -0.0685  0.0218  1.0000  -5.7291   0.0000   0.0000   0.0000   0.2759
  12.200   1.5916   0.02081   0.01474  -0.0678  0.0213  1.0000  -5.7994   0.0000   0.0000   0.0000   0.2752
  12.300   1.5976   0.02108   0.01503  -0.0672  0.0210  1.0000  -5.8777   0.0000   0.0000   0.0000   0.2744
  12.400   1.6032   0.02138   0.01534  -0.0666  0.0206  1.0000  -5.9545   0.0000   0.0000   0.0000   0.2737
  12.500   1.6085   0.02170   0.01568  -0.0660  0.0203  1.0000  -6.0299   0.0000   0.0000   0.0000   0.2730
  12.600   1.6135   0.02204   0.01603  -0.0653  0.0199  1.0000  -6.1045   0.0000   0.0000   0.0000   0.2723
  12.700   1.6182   0.02241   0.01641  -0.0646  0.0195  1.0000  -6.1776   0.0000   0.0000   0.0000   0.2716
  12.800   1.6225   0.02281   0.01682  -0.0639  0.0192  1.0000  -6.2493   0.0000   0.0000   0.0000   0.2709
  12.900   1.6264   0.02324   0.01726  -0.0632  0.0188  1.0000  -6.3189   0.0000   0.0000   0.0000   0.2701
  13.000   1.6296   0.02373   0.01776  -0.0624  0.0184  1.0000  -6.3841   0.0000   0.0000   0.0000   0.2694
  13.100   1.6347   0.02408   0.01814  -0.0618  0.0182  1.0000  -6.4607   0.0000   0.0000   0.0000   0.2687
  13.200   1.6397   0.02445   0.01853  -0.0612  0.0179  1.0000  -6.5369   0.0000   0.0000   0.0000   0.2680
  13.300   1.6445   0.02484   0.01894  -0.0607  0.0177  1.0000  -6.6123   0.0000   0.0000   0.0000   0.2674
  13.400   1.6490   0.02526   0.01937  -0.0601  0.0174  1.0000  -6.6864   0.0000   0.0000   0.0000   0.2667
  13.500   1.6532   0.02570   0.01983  -0.0595  0.0172  1.0000  -6.7594   0.0000   0.0000   0.0000   0.2661
  13.600   1.6572   0.02617   0.02031  -0.0589  0.0169  1.0000  -6.8318   0.0000   0.0000   0.0000   0.2654
  13.700   1.6609   0.02666   0.02082  -0.0583  0.0167  1.0000  -6.9028   0.0000   0.0000   0.0000   0.2648
  13.800   1.6643   0.02718   0.02135  -0.0576  0.0164  1.0000  -6.9724   0.0000   0.0000   0.0000   0.2641
  13.900   1.6671   0.02775   0.02194  -0.0570  0.0161  1.0000  -7.0390   0.0000   0.0000   0.0000   0.2635
  14.000   1.6693   0.02838   0.02259  -0.0563  0.0158  1.0000  -7.1015   0.0000   0.0000   0.0000   0.2628
  14.100   1.6716   0.02902   0.02324  -0.0557  0.0156  1.0000  -7.1659   0.0000   0.0000   0.0000   0.2622
  14.200   1.6759   0.02950   0.02375  -0.0552  0.0155  1.0000  -7.2446   0.0000   0.0000   0.0000   0.2616
  14.300   1.6798   0.03002   0.02429  -0.0547  0.0153  1.0000  -7.3214   0.0000   0.0000   0.0000   0.2611
  14.400   1.6835   0.03056   0.02486  -0.0542  0.0151  1.0000  -7.3975   0.0000   0.0000   0.0000   0.2605
  14.500   1.6868   0.03113   0.02545  -0.0537  0.0149  1.0000  -7.4720   0.0000   0.0000   0.0000   0.2599
  14.600   1.6901   0.03173   0.02607  -0.0533  0.0148  1.0000  -7.5458   0.0000   0.0000   0.0000   0.2594
  14.700   1.6929   0.03236   0.02672  -0.0528  0.0146  1.0000  -7.6175   0.0000   0.0000   0.0000   0.2588
  14.800   1.6955   0.03301   0.02739  -0.0523  0.0144  1.0000  -7.6883   0.0000   0.0000   0.0000   0.2583
  14.900   1.6978   0.03370   0.02810  -0.0518  0.0143  1.0000  -7.7574   0.0000   0.0000   0.0000   0.2577
  15.000   1.6999   0.03442   0.02884  -0.0513  0.0141  1.0000  -7.8254   0.0000   0.0000   0.0000   0.2572


