xflr5 v6.61

 Calculated polar for: NACA 0012

 1 1 Reynolds number fixed          Mach number fixed         

 xtrf =   1.000 (top)        1.000 (bottom)
 Mach =   0.000     Re =     0.500 e 6     Ncrit =   9.000

  alpha     CL        CD       CDp       Cm    Top Xtr Bot Xtr   Cpmin    Chinge    XCp    
 ------- -------- --------- --------- -------- ------- ------- -------- --------- ---------
 -15.000  -1.2024   0.05205   0.04771  -0.0320  1.0000  0.0200  -7.9961   0.0000   0.0000   0.0000   0.2042
 -14.900  -1.2044   0.05056   0.04617  -0.0325  1.0000  0.0201  -7.9759   0.0000   0.0000   0.0000   0.2040
 -14.800  -1.2061   0.04912   0.04468  -0.0331  1.0000  0.0202  -7.9539   0.0000   0.0000   0.0000   0.2038
 -14.700  -1.2074   0.04777   0.04328  -0.0335  1.0000  0.0203  -7.9281   0.0000   0.0000   0.0000   0.2037
 -14.600  -1.2085   0.04646   0.04192  -0.0339  1.0000  0.0204  -7.9001   0.0000   0.0000   0.0000   0.2036
 -14.500  -1.2093   0.04521   0.04062  -0.0342  1.0000  0.0205  -7.8698   0.0000   0.0000   0.0000   0.2036
 -14.400  -1.2098   0.04402   0.03938  -0.0344  1.0000  0.0206  -7.8374   0.0000   0.0000   0.0000   0.2036
 -14.300  -1.2102   0.04288   0.03819  -0.0346  1.0000  0.0207  -7.8036   0.0000   0.0000   0.0000   0.2037
 -14.200  -1.2104   0.04180   0.03706  -0.0347  1.0000  0.0208  -7.7675   0.0000   0.0000   0.0000   0.2038
 -14.100  -1.2104   0.04077   0.03598  -0.0347  1.0000  0.0210  -7.7304   0.0000   0.0000   0.0000   0.2040
 -14.000  -1.2102   0.03978   0.03495  -0.0347  1.0000  0.0211  -7.6914   0.0000   0.0000   0.0000   0.2042
 -13.900  -1.2097   0.03884   0.03396  -0.0346  1.0000  0.0212  -7.6506   0.0000   0.0000   0.0000   0.2045
 -13.800  -1.2090   0.03794   0.03300  -0.0344  1.0000  0.0214  -7.6081   0.0000   0.0000   0.0000   0.2048
 -13.700  -1.2081   0.03709   0.03210  -0.0342  1.0000  0.0215  -7.5640   0.0000   0.0000   0.0000   0.2052
 -13.600  -1.2070   0.03627   0.03123  -0.0339  1.0000  0.0217  -7.5189   0.0000   0.0000   0.0000   0.2056
 -13.500  -1.2057   0.03549   0.03040  -0.0335  1.0000  0.0218  -7.4721   0.0000   0.0000   0.0000   0.2060
 -13.400  -1.2043   0.03475   0.02960  -0.0331  1.0000  0.0220  -7.4243   0.0000   0.0000   0.0000   0.2065
 -13.300  -1.2026   0.03405   0.02885  -0.0327  1.0000  0.0222  -7.3743   0.0000   0.0000   0.0000   0.2070
 -13.200  -1.2004   0.03339   0.02815  -0.0322  1.0000  0.0223  -7.3214   0.0000   0.0000   0.0000   0.2075
 -13.100  -1.1980   0.03278   0.02749  -0.0317  1.0000  0.0225  -7.2657   0.0000   0.0000   0.0000   0.2081
 -13.000  -1.1952   0.03222   0.02688  -0.0312  1.0000  0.0227  -7.2078   0.0000   0.0000   0.0000   0.2086
 -12.900  -1.1922   0.03169   0.02631  -0.0306  1.0000  0.0229  -7.1478   0.0000   0.0000   0.0000   0.2092
 -12.800  -1.1888   0.03121   0.02578  -0.0300  1.0000  0.0230  -7.0852   0.0000   0.0000   0.0000   0.2098
 -12.700  -1.1852   0.03076   0.02529  -0.0294  1.0000  0.0232  -7.0206   0.0000   0.0000   0.0000   0.2104
 -12.600  -1.1812   0.03035   0.02484  -0.0288  1.0000  0.0234  -6.9537   0.0000   0.0000   0.0000   0.2110
 -12.500  -1.1770   0.02998   0.02442  -0.0282  1.0000  0.0235  -6.8851   0.0000   0.0000   0.0000   0.2116
 -12.400  -1.1726   0.02964   0.02404  -0.0275  1.0000  0.0236  -6.8151   0.0000   0.0000   0.0000   0.2122
 -12.300  -1.1679   0.02933   0.02368  -0.0269  1.0000  0.0237  -6.7434   0.0000   0.0000   0.0000   0.2128
 -12.200  -1.1669   0.02854   0.02282  -0.0259  1.0000  0.0240  -6.7052   0.0000   0.0000   0.0000   0.2138
 -12.100  -1.1693   0.02736   0.02156  -0.0244  1.0000  0.0244  -6.6954   0.0000   0.0000   0.0000   0.2152
 -12.000  -1.1690   0.02654   0.02069  -0.0232  1.0000  0.0247  -6.6609   0.0000   0.0000   0.0000   0.2164
 -11.900  -1.1671   0.02592   0.02003  -0.0221  1.0000  0.0250  -6.6121   0.0000   0.0000   0.0000   0.2175
 -11.800  -1.1639   0.02541   0.01950  -0.0212  1.0000  0.0253  -6.5534   0.0000   0.0000   0.0000   0.2184
 -11.700  -1.1592   0.02496   0.01904  -0.0204  1.0000  0.0256  -6.4856   0.0000   0.0000   0.0000   0.2191
 -11.600  -1.1538   0.02458   0.01863  -0.0198  1.0000  0.0259  -6.4127   0.0000   0.0000   0.0000   0.2197
 -11.500  -1.1479   0.02422   0.01826  -0.0192  1.0000  0.0262  -6.3370   0.0000   0.0000   0.0000   0.2203
 -11.400  -1.1416   0.02389   0.01791  -0.0186  1.0000  0.0265  -6.2597   0.0000   0.0000   0.0000   0.2208
 -11.300  -1.1351   0.02358   0.01757  -0.0181  1.0000  0.0268  -6.1816   0.0000   0.0000   0.0000   0.2214
 -11.200  -1.1284   0.02327   0.01724  -0.0175  1.0000  0.0272  -6.1031   0.0000   0.0000   0.0000   0.2219
 -11.100  -1.1216   0.02296   0.01691  -0.0170  1.0000  0.0275  -6.0245   0.0000   0.0000   0.0000   0.2224
 -11.000  -1.1146   0.02266   0.01658  -0.0165  1.0000  0.0279  -5.9460   0.0000   0.0000   0.0000   0.2229
 -10.900  -1.1075   0.02236   0.01626  -0.0160  1.0000  0.0282  -5.8675   0.0000   0.0000   0.0000   0.2234
 -10.800  -1.1003   0.02207   0.01594  -0.0155  1.0000  0.0286  -5.7891   0.0000   0.0000   0.0000   0.2239
 -10.700  -1.0929   0.02178   0.01562  -0.0150  1.0000  0.0290  -5.7106   0.0000   0.0000   0.0000   0.2244
 -10.600  -1.0854   0.02150   0.01531  -0.0145  1.0000  0.0294  -5.6318   0.0000   0.0000   0.0000   0.2249
 -10.500  -1.0777   0.02123   0.01501  -0.0141  1.0000  0.0298  -5.5525   0.0000   0.0000   0.0000   0.2253
 -10.400  -1.0699   0.02098   0.01472  -0.0136  1.0000  0.0301  -5.4725   0.0000   0.0000   0.0000   0.2258
 -10.300  -1.0618   0.02075   0.01445  -0.0132  1.0000  0.0304  -5.3914   0.0000   0.0000   0.0000   0.2262
 -10.200  -1.0536   0.02053   0.01421  -0.0128  1.0000  0.0307  -5.3093   0.0000   0.0000   0.0000   0.2267
 -10.100  -1.0451   0.02034   0.01399  -0.0124  1.0000  0.0309  -5.2261   0.0000   0.0000   0.0000   0.2270
 -10.000  -1.0377   0.02003   0.01364  -0.0119  1.0000  0.0312  -5.1519   0.0000   0.0000   0.0000   0.2276
  -9.900  -1.0346   0.01924   0.01281  -0.0108  1.0000  0.0321  -5.1093   0.0000   0.0000   0.0000   0.2287
  -9.800  -1.0290   0.01876   0.01230  -0.0100  1.0000  0.0329  -5.0468   0.0000   0.0000   0.0000   0.2296
  -9.700  -1.0220   0.01842   0.01196  -0.0094  1.0000  0.0336  -4.9809   0.0000   0.0000   0.0000   0.2302
  -9.600  -1.0142   0.01816   0.01170  -0.0089  1.0000  0.0343  -4.9103   0.0000   0.0000   0.0000   0.2307
  -9.500  -1.0059   0.01795   0.01149  -0.0085  1.0000  0.0350  -4.8369   0.0000   0.0000   0.0000   0.2312
  -9.400  -0.9975   0.01777   0.01130  -0.0081  1.0000  0.0357  -4.7628   0.0000   0.0000   0.0000   0.2316
  -9.300  -0.9890   0.01758   0.01110  -0.0077  1.0000  0.0364  -4.6896   0.0000   0.0000   0.0000   0.2321
  -9.200  -0.9805   0.01740   0.01091  -0.0073  1.0000  0.0371  -4.6174   0.0000   0.0000   0.0000   0.2325
  -9.100  -0.9720   0.01722   0.01071  -0.0069  1.0000  0.0378  -4.5460   0.0000   0.0000   0.0000   0.2330
  -9.000  -0.9634   0.01704   0.01052  -0.0065  1.0000  0.0385  -4.4751   0.0000   0.0000   0.0000   0.2335
  -8.900  -0.9549   0.01688   0.01033  -0.0060  1.0000  0.0391  -4.4045   0.0000   0.0000   0.0000   0.2340
  -8.800  -0.9462   0.01673   0.01016  -0.0056  1.0000  0.0396  -4.3336   0.0000   0.0000   0.0000   0.2345
  -8.700  -0.9373   0.01659   0.00999  -0.0052  1.0000  0.0400  -4.2620   0.0000   0.0000   0.0000   0.2350
  -8.600  -0.9301   0.01630   0.00968  -0.0046  1.0000  0.0407  -4.2014   0.0000   0.0000   0.0000   0.2358
  -8.500  -0.9250   0.01581   0.00915  -0.0036  1.0000  0.0423  -4.1551   0.0000   0.0000   0.0000   0.2370
  -8.400  -0.9182   0.01550   0.00884  -0.0028  1.0000  0.0436  -4.0956   0.0000   0.0000   0.0000   0.2378
  -8.300  -0.9105   0.01527   0.00862  -0.0022  1.0000  0.0448  -4.0305   0.0000   0.0000   0.0000   0.2386
  -8.200  -0.9024   0.01509   0.00844  -0.0017  1.0000  0.0459  -3.9632   0.0000   0.0000   0.0000   0.2392
  -8.100  -0.8941   0.01492   0.00828  -0.0012  1.0000  0.0470  -3.8952   0.0000   0.0000   0.0000   0.2399
  -8.000  -0.8857   0.01477   0.00812  -0.0007  1.0000  0.0481  -3.8274   0.0000   0.0000   0.0000   0.2405
  -7.900  -0.8773   0.01463   0.00797  -0.0002  1.0000  0.0492  -3.7598   0.0000   0.0000   0.0000   0.2412
  -7.800  -0.8687   0.01451   0.00783   0.0002  1.0000  0.0502  -3.6917   0.0000   0.0000   0.0000   0.2418
  -7.700  -0.8598   0.01440   0.00771   0.0007  1.0000  0.0511  -3.6228   0.0000   0.0000   0.0000   0.2425
  -7.600  -0.8508   0.01433   0.00762   0.0011  1.0000  0.0517  -3.5529   0.0000   0.0000   0.0000   0.2430
  -7.500  -0.8449   0.01394   0.00722   0.0020  1.0000  0.0545  -3.5028   0.0000   0.0000   0.0000   0.2442
  -7.400  -0.8375   0.01369   0.00699   0.0027  1.0000  0.0570  -3.4432   0.0000   0.0000   0.0000   0.2452
  -7.300  -0.8295   0.01351   0.00682   0.0032  1.0000  0.0591  -3.3792   0.0000   0.0000   0.0000   0.2460
  -7.200  -0.8213   0.01337   0.00669   0.0037  1.0000  0.0610  -3.3147   0.0000   0.0000   0.0000   0.2467
  -7.100  -0.8129   0.01324   0.00656   0.0042  1.0000  0.0628  -3.2499   0.0000   0.0000   0.0000   0.2475
  -7.000  -0.8043   0.01313   0.00643   0.0047  1.0000  0.0644  -3.1852   0.0000   0.0000   0.0000   0.2483
  -6.900  -0.7956   0.01304   0.00632   0.0052  1.0000  0.0657  -3.1201   0.0000   0.0000   0.0000   0.2490
  -6.800  -0.7876   0.01286   0.00614   0.0058  1.0000  0.0680  -3.0658   0.0000   0.0000   0.0000   0.2499
  -6.700  -0.7803   0.01261   0.00592   0.0065  1.0000  0.0723  -3.0155   0.0000   0.0000   0.0000   0.2510
  -6.600  -0.7723   0.01244   0.00578   0.0070  1.0000  0.0756  -2.9609   0.0000   0.0000   0.0000   0.2519
  -6.500  -0.7640   0.01231   0.00567   0.0075  1.0000  0.0787  -2.9052   0.0000   0.0000   0.0000   0.2527
  -6.400  -0.7554   0.01220   0.00556   0.0080  1.0000  0.0815  -2.8490   0.0000   0.0000   0.0000   0.2536
  -6.300  -0.7466   0.01213   0.00547   0.0085  1.0000  0.0835  -2.7919   0.0000   0.0000   0.0000   0.2544
  -6.200  -0.7388   0.01192   0.00529   0.0091  1.0000  0.0895  -2.7408   0.0000   0.0000   0.0000   0.2554
  -6.100  -0.7308   0.01175   0.00517   0.0096  1.0000  0.0949  -2.6872   0.0000   0.0000   0.0000   0.2563
  -6.000  -0.7223   0.01162   0.00507   0.0101  1.0000  0.0995  -2.6326   0.0000   0.0000   0.0000   0.2572
  -5.900  -0.7136   0.01154   0.00497   0.0105  1.0000  0.1031  -2.5774   0.0000   0.0000   0.0000   0.2581
  -5.800  -0.7053   0.01138   0.00484   0.0110  1.0000  0.1098  -2.5248   0.0000   0.0000   0.0000   0.2591
  -5.700  -0.6971   0.01122   0.00474   0.0115  1.0000  0.1167  -2.4719   0.0000   0.0000   0.0000   0.2600
  -5.600  -0.6885   0.01111   0.00465   0.0119  1.0000  0.1226  -2.4181   0.0000   0.0000   0.0000   0.2610
  -5.500  -0.6797   0.01102   0.00457   0.0124  1.0000  0.1284  -2.3646   0.0000   0.0000   0.0000   0.2619
  -5.400  -0.6714   0.01085   0.00447   0.0128  1.0000  0.1375  -2.3125   0.0000   0.0000   0.0000   0.2629
  -5.300  -0.6627   0.01074   0.00439   0.0132  1.0000  0.1454  -2.2595   0.0000   0.0000   0.0000   0.2638
  -5.200  -0.6539   0.01064   0.00431   0.0136  1.0000  0.1533  -2.2068   0.0000   0.0000   0.0000   0.2647
  -5.100  -0.6420   0.01047   0.00422   0.0133  0.9995  0.1651  -2.1474   0.0000   0.0000   0.0000   0.2647
  -5.000  -0.6272   0.01035   0.00413   0.0124  0.9984  0.1758  -2.0866   0.0000   0.0000   0.0000   0.2639
  -4.900  -0.6128   0.01017   0.00403   0.0116  0.9973  0.1895  -2.0271   0.0000   0.0000   0.0000   0.2631
  -4.800  -0.5980   0.01005   0.00396   0.0108  0.9960  0.2007  -1.9673   0.0000   0.0000   0.0000   0.2622
  -4.700  -0.5834   0.00989   0.00386   0.0099  0.9948  0.2149  -1.9086   0.0000   0.0000   0.0000   0.2613
  -4.600  -0.5684   0.00977   0.00378   0.0090  0.9936  0.2278  -1.8493   0.0000   0.0000   0.0000   0.2602
  -4.500  -0.5534   0.00961   0.00371   0.0081  0.9924  0.2431  -1.7906   0.0000   0.0000   0.0000   0.2590
  -4.400  -0.5383   0.00948   0.00364   0.0071  0.9913  0.2574  -1.7321   0.0000   0.0000   0.0000   0.2577
  -4.300  -0.5229   0.00936   0.00358   0.0061  0.9904  0.2720  -1.6736   0.0000   0.0000   0.0000   0.2562
  -4.200  -0.5075   0.00922   0.00351   0.0051  0.9895  0.2862  -1.6159   0.0000   0.0000   0.0000   0.2547
  -4.100  -0.4946   0.00911   0.00344   0.0047  0.9875  0.2992  -1.5664   0.0000   0.0000   0.0000   0.2542
  -4.000  -0.4813   0.00896   0.00337   0.0042  0.9855  0.3137  -1.5194   0.0000   0.0000   0.0000   0.2534
  -3.900  -0.4673   0.00887   0.00331   0.0036  0.9836  0.3273  -1.4714   0.0000   0.0000   0.0000   0.2524
  -3.800  -0.4533   0.00872   0.00324   0.0029  0.9817  0.3425  -1.4237   0.0000   0.0000   0.0000   0.2511
  -3.700  -0.4385   0.00863   0.00317   0.0021  0.9799  0.3555  -1.3750   0.0000   0.0000   0.0000   0.2496
  -3.600  -0.4237   0.00849   0.00311   0.0013  0.9782  0.3705  -1.3269   0.0000   0.0000   0.0000   0.2478
  -3.500  -0.4086   0.00839   0.00306   0.0004  0.9767  0.3843  -1.2785   0.0000   0.0000   0.0000   0.2458
  -3.400  -0.3933   0.00827   0.00300  -0.0005  0.9753  0.3998  -1.2321   0.0000   0.0000   0.0000   0.2435
  -3.300  -0.3776   0.00816   0.00295  -0.0015  0.9740  0.4134  -1.1886   0.0000   0.0000   0.0000   0.2409
  -3.200  -0.3618   0.00805   0.00290  -0.0025  0.9728  0.4280  -1.1452   0.0000   0.0000   0.0000   0.2379
  -3.100  -0.3462   0.00794   0.00284  -0.0035  0.9716  0.4417  -1.1027   0.0000   0.0000   0.0000   0.2348
  -3.000  -0.3308   0.00784   0.00280  -0.0044  0.9703  0.4563  -1.0608   0.0000   0.0000   0.0000   0.2316
  -2.900  -0.3198   0.00775   0.00275  -0.0043  0.9668  0.4680  -1.0265   0.0000   0.0000   0.0000   0.2314
  -2.800  -0.3083   0.00765   0.00270  -0.0043  0.9631  0.4806  -0.9950   0.0000   0.0000   0.0000   0.2309
  -2.700  -0.2956   0.00756   0.00264  -0.0046  0.9597  0.4926  -0.9621   0.0000   0.0000   0.0000   0.2294
  -2.600  -0.2828   0.00746   0.00259  -0.0049  0.9565  0.5061  -0.9292   0.0000   0.0000   0.0000   0.2276
  -2.500  -0.2696   0.00737   0.00254  -0.0053  0.9535  0.5181  -0.8962   0.0000   0.0000   0.0000   0.2255
  -2.400  -0.2564   0.00727   0.00249  -0.0056  0.9506  0.5311  -0.8643   0.0000   0.0000   0.0000   0.2230
  -2.300  -0.2426   0.00719   0.00244  -0.0061  0.9478  0.5431  -0.8343   0.0000   0.0000   0.0000   0.2197
  -2.200  -0.2313   0.00710   0.00241  -0.0061  0.9439  0.5555  -0.8077   0.0000   0.0000   0.0000   0.2188
  -2.100  -0.2214   0.00704   0.00238  -0.0057  0.9385  0.5668  -0.7828   0.0000   0.0000   0.0000   0.2193
  -2.000  -0.2109   0.00695   0.00234  -0.0055  0.9333  0.5780  -0.7574   0.0000   0.0000   0.0000   0.2192
  -1.900  -0.1994   0.00688   0.00230  -0.0054  0.9285  0.5901  -0.7337   0.0000   0.0000   0.0000   0.2180
  -1.800  -0.1876   0.00680   0.00225  -0.0054  0.9240  0.6012  -0.7100   0.0000   0.0000   0.0000   0.2164
  -1.700  -0.1763   0.00673   0.00222  -0.0053  0.9195  0.6133  -0.6869   0.0000   0.0000   0.0000   0.2151
  -1.600  -0.1664   0.00668   0.00219  -0.0049  0.9132  0.6238  -0.6655   0.0000   0.0000   0.0000   0.2155
  -1.500  -0.1562   0.00660   0.00216  -0.0046  0.9068  0.6350  -0.6463   0.0000   0.0000   0.0000   0.2158
  -1.400  -0.1454   0.00655   0.00213  -0.0044  0.9007  0.6464  -0.6266   0.0000   0.0000   0.0000   0.2152
  -1.300  -0.1347   0.00649   0.00209  -0.0041  0.8950  0.6571  -0.6071   0.0000   0.0000   0.0000   0.2147
  -1.200  -0.1244   0.00644   0.00208  -0.0038  0.8885  0.6685  -0.5884   0.0000   0.0000   0.0000   0.2147
  -1.100  -0.1140   0.00641   0.00205  -0.0035  0.8812  0.6787  -0.5716   0.0000   0.0000   0.0000   0.2145
  -1.000  -0.1038   0.00635   0.00203  -0.0031  0.8739  0.6897  -0.5551   0.0000   0.0000   0.0000   0.2149
  -0.900  -0.0932   0.00632   0.00200  -0.0029  0.8671  0.7006  -0.5382   0.0000   0.0000   0.0000   0.2145
  -0.800  -0.0829   0.00628   0.00199  -0.0026  0.8595  0.7107  -0.5224   0.0000   0.0000   0.0000   0.2145
  -0.700  -0.0726   0.00624   0.00198  -0.0022  0.8514  0.7216  -0.5078   0.0000   0.0000   0.0000   0.2147
  -0.500  -0.0519   0.00619   0.00195  -0.0016  0.8356  0.7417  -0.4789   0.0000   0.0000   0.0000   0.2148
  -0.400  -0.0414   0.00617   0.00194  -0.0013  0.8267  0.7523  -0.4651   0.0000   0.0000   0.0000   0.2143
  -0.300  -0.0311   0.00617   0.00192  -0.0010  0.8178  0.7617  -0.4523   0.0000   0.0000   0.0000   0.2143
  -0.200  -0.0208   0.00615   0.00192  -0.0006  0.8095  0.7716  -0.4397   0.0000   0.0000   0.0000   0.2160
  -0.100  -0.0103   0.00615   0.00192  -0.0003  0.8001  0.7815  -0.4270   0.0000   0.0000   0.0000   0.2116
   0.000   0.0000   0.00615   0.00192  -0.0000  0.7905  0.7905  -0.4148   0.0000   0.0000   0.0000   0.4740
   0.100   0.0103   0.00615   0.00192   0.0003  0.7815  0.8001  -0.4270   0.0000   0.0000   0.0000   0.2116
   0.200   0.0208   0.00615   0.00192   0.0006  0.7716  0.8095  -0.4397   0.0000   0.0000   0.0000   0.2160
   0.300   0.0311   0.00617   0.00192   0.0010  0.7617  0.8178  -0.4523   0.0000   0.0000   0.0000   0.2143
   0.400   0.0414   0.00617   0.00194   0.0013  0.7523  0.8267  -0.4651   0.0000   0.0000   0.0000   0.2143
   0.500   0.0519   0.00619   0.00195   0.0016  0.7417  0.8356  -0.4789   0.0000   0.0000   0.0000   0.2148
   0.700   0.0726   0.00624   0.00198   0.0022  0.7216  0.8514  -0.5078   0.0000   0.0000   0.0000   0.2147
   0.800   0.0829   0.00628   0.00199   0.0026  0.7107  0.8595  -0.5224   0.0000   0.0000   0.0000   0.2145
   1.000   0.1038   0.00635   0.00203   0.0031  0.6897  0.8739  -0.5551   0.0000   0.0000   0.0000   0.2149
   1.100   0.1140   0.00641   0.00205   0.0035  0.6787  0.8812  -0.5716   0.0000   0.0000   0.0000   0.2145
   1.200   0.1244   0.00644   0.00208   0.0038  0.6685  0.8885  -0.5884   0.0000   0.0000   0.0000   0.2147
   1.300   0.1347   0.00649   0.00209   0.0041  0.6571  0.8950  -0.6071   0.0000   0.0000   0.0000   0.2147
   1.400   0.1454   0.00655   0.00213   0.0044  0.6464  0.9007  -0.6266   0.0000   0.0000   0.0000   0.2152
   1.500   0.1562   0.00660   0.00216   0.0046  0.6350  0.9068  -0.6463   0.0000   0.0000   0.0000   0.2158
   1.600   0.1664   0.00668   0.00219   0.0049  0.6238  0.9132  -0.6655   0.0000   0.0000   0.0000   0.2155
   1.700   0.1763   0.00673   0.00222   0.0053  0.6133  0.9195  -0.6869   0.0000   0.0000   0.0000   0.2151
   1.800   0.1876   0.00680   0.00225   0.0054  0.6012  0.9240  -0.7100   0.0000   0.0000   0.0000   0.2164
   1.900   0.1994   0.00688   0.00230   0.0054  0.5901  0.9285  -0.7337   0.0000   0.0000   0.0000   0.2180
   2.000   0.2109   0.00695   0.00234   0.0055  0.5780  0.9333  -0.7574   0.0000   0.0000   0.0000   0.2192
   2.100   0.2214   0.00704   0.00238   0.0057  0.5668  0.9385  -0.7828   0.0000   0.0000   0.0000   0.2193
   2.200   0.2313   0.00710   0.00241   0.0061  0.5555  0.9439  -0.8077   0.0000   0.0000   0.0000   0.2188
   2.300   0.2426   0.00719   0.00244   0.0061  0.5431  0.9478  -0.8343   0.0000   0.0000   0.0000   0.2197
   2.400   0.2564   0.00727   0.00249   0.0056  0.5311  0.9506  -0.8643   0.0000   0.0000   0.0000   0.2230
   2.500   0.2696   0.00737   0.00254   0.0053  0.5181  0.9535  -0.8962   0.0000   0.0000   0.0000   0.2255
   2.600   0.2828   0.00746   0.00259   0.0049  0.5061  0.9565  -0.9292   0.0000   0.0000   0.0000   0.2276
   2.700   0.2956   0.00756   0.00264   0.0046  0.4926  0.9597  -0.9621   0.0000   0.0000   0.0000   0.2294
   2.800   0.3082   0.00765   0.00270   0.0043  0.4806  0.9631  -0.9949   0.0000   0.0000   0.0000   0.2309
   2.900   0.3197   0.00774   0.00275   0.0043  0.4680  0.9669  -1.0265   0.0000   0.0000   0.0000   0.2314
   3.000   0.3308   0.00784   0.00279   0.0044  0.4563  0.9703  -1.0608   0.0000   0.0000   0.0000   0.2316
   3.100   0.3462   0.00794   0.00284   0.0035  0.4417  0.9716  -1.1027   0.0000   0.0000   0.0000   0.2348
   3.200   0.3618   0.00805   0.00289   0.0025  0.4280  0.9728  -1.1452   0.0000   0.0000   0.0000   0.2379
   3.300   0.3776   0.00816   0.00295   0.0015  0.4134  0.9740  -1.1886   0.0000   0.0000   0.0000   0.2409
   3.400   0.3933   0.00827   0.00300   0.0005  0.3998  0.9753  -1.2321   0.0000   0.0000   0.0000   0.2435
   3.500   0.4086   0.00839   0.00306  -0.0004  0.3843  0.9767  -1.2785   0.0000   0.0000   0.0000   0.2458
   3.600   0.4238   0.00849   0.00311  -0.0013  0.3705  0.9782  -1.3269   0.0000   0.0000   0.0000   0.2478
   3.700   0.4385   0.00862   0.00317  -0.0021  0.3555  0.9799  -1.3751   0.0000   0.0000   0.0000   0.2496
   3.800   0.4533   0.00872   0.00324  -0.0029  0.3425  0.9817  -1.4237   0.0000   0.0000   0.0000   0.2511
   3.900   0.4673   0.00887   0.00330  -0.0036  0.3273  0.9836  -1.4713   0.0000   0.0000   0.0000   0.2524
   4.000   0.4813   0.00896   0.00337  -0.0042  0.3137  0.9855  -1.5194   0.0000   0.0000   0.0000   0.2534
   4.100   0.4946   0.00911   0.00344  -0.0047  0.2992  0.9876  -1.5664   0.0000   0.0000   0.0000   0.2542
   4.200   0.5075   0.00922   0.00351  -0.0051  0.2862  0.9895  -1.6158   0.0000   0.0000   0.0000   0.2547
   4.300   0.5229   0.00936   0.00357  -0.0061  0.2719  0.9904  -1.6737   0.0000   0.0000   0.0000   0.2562
   4.400   0.5383   0.00948   0.00364  -0.0071  0.2574  0.9914  -1.7322   0.0000   0.0000   0.0000   0.2577
   4.500   0.5535   0.00961   0.00371  -0.0081  0.2431  0.9924  -1.7907   0.0000   0.0000   0.0000   0.2590
   4.600   0.5685   0.00976   0.00378  -0.0090  0.2278  0.9936  -1.8494   0.0000   0.0000   0.0000   0.2602
   4.700   0.5835   0.00989   0.00386  -0.0099  0.2149  0.9948  -1.9087   0.0000   0.0000   0.0000   0.2613
   4.800   0.5980   0.01005   0.00395  -0.0108  0.2007  0.9961  -1.9674   0.0000   0.0000   0.0000   0.2622
   4.900   0.6128   0.01017   0.00403  -0.0116  0.1895  0.9973  -2.0272   0.0000   0.0000   0.0000   0.2631
   5.000   0.6273   0.01035   0.00413  -0.0125  0.1758  0.9985  -2.0867   0.0000   0.0000   0.0000   0.2639
   5.100   0.6421   0.01047   0.00422  -0.0133  0.1650  0.9995  -2.1475   0.0000   0.0000   0.0000   0.2648
   5.200   0.6537   0.01063   0.00431  -0.0136  0.1534  1.0000  -2.2063   0.0000   0.0000   0.0000   0.2647
   5.300   0.6625   0.01074   0.00439  -0.0132  0.1454  1.0000  -2.2590   0.0000   0.0000   0.0000   0.2637
   5.400   0.6712   0.01085   0.00446  -0.0128  0.1376  1.0000  -2.3120   0.0000   0.0000   0.0000   0.2628
   5.500   0.6795   0.01101   0.00456  -0.0123  0.1285  1.0000  -2.3641   0.0000   0.0000   0.0000   0.2618
   5.600   0.6883   0.01111   0.00465  -0.0119  0.1227  1.0000  -2.4176   0.0000   0.0000   0.0000   0.2609
   5.700   0.6969   0.01122   0.00474  -0.0115  0.1168  1.0000  -2.4714   0.0000   0.0000   0.0000   0.2600
   5.800   0.7052   0.01138   0.00484  -0.0110  0.1099  1.0000  -2.5243   0.0000   0.0000   0.0000   0.2590
   5.900   0.7134   0.01153   0.00497  -0.0105  0.1031  1.0000  -2.5769   0.0000   0.0000   0.0000   0.2581
   6.000   0.7222   0.01162   0.00507  -0.0100  0.0996  1.0000  -2.6322   0.0000   0.0000   0.0000   0.2572
   6.100   0.7306   0.01175   0.00517  -0.0096  0.0949  1.0000  -2.6867   0.0000   0.0000   0.0000   0.2563
   6.200   0.7387   0.01192   0.00529  -0.0090  0.0895  1.0000  -2.7403   0.0000   0.0000   0.0000   0.2553
   6.300   0.7464   0.01213   0.00547  -0.0084  0.0835  1.0000  -2.7914   0.0000   0.0000   0.0000   0.2543
   6.400   0.7553   0.01220   0.00556  -0.0080  0.0815  1.0000  -2.8485   0.0000   0.0000   0.0000   0.2535
   6.500   0.7638   0.01230   0.00566  -0.0075  0.0787  1.0000  -2.9048   0.0000   0.0000   0.0000   0.2527
   6.600   0.7721   0.01244   0.00578  -0.0070  0.0756  1.0000  -2.9604   0.0000   0.0000   0.0000   0.2518
   6.700   0.7801   0.01261   0.00592  -0.0064  0.0723  1.0000  -3.0151   0.0000   0.0000   0.0000   0.2509
   6.800   0.7875   0.01286   0.00614  -0.0058  0.0680  1.0000  -3.0654   0.0000   0.0000   0.0000   0.2499
   6.900   0.7954   0.01304   0.00632  -0.0052  0.0657  1.0000  -3.1196   0.0000   0.0000   0.0000   0.2490
   7.000   0.8042   0.01313   0.00643  -0.0047  0.0644  1.0000  -3.1848   0.0000   0.0000   0.0000   0.2482
   7.100   0.8127   0.01324   0.00655  -0.0042  0.0628  1.0000  -3.2495   0.0000   0.0000   0.0000   0.2475
   7.200   0.8212   0.01336   0.00668  -0.0037  0.0610  1.0000  -3.3142   0.0000   0.0000   0.0000   0.2467
   7.300   0.8294   0.01351   0.00682  -0.0032  0.0591  1.0000  -3.3788   0.0000   0.0000   0.0000   0.2459
   7.400   0.8374   0.01369   0.00699  -0.0026  0.0571  1.0000  -3.4428   0.0000   0.0000   0.0000   0.2451
   7.500   0.8448   0.01394   0.00722  -0.0020  0.0546  1.0000  -3.5025   0.0000   0.0000   0.0000   0.2442
   7.600   0.8507   0.01433   0.00762  -0.0011  0.0518  1.0000  -3.5526   0.0000   0.0000   0.0000   0.2430
   7.700   0.8597   0.01440   0.00771  -0.0007  0.0511  1.0000  -3.6224   0.0000   0.0000   0.0000   0.2424
   7.800   0.8686   0.01450   0.00783  -0.0002  0.0502  1.0000  -3.6914   0.0000   0.0000   0.0000   0.2418
   7.900   0.8772   0.01463   0.00796   0.0003  0.0492  1.0000  -3.7595   0.0000   0.0000   0.0000   0.2412
   8.000   0.8857   0.01477   0.00812   0.0007  0.0481  1.0000  -3.8271   0.0000   0.0000   0.0000   0.2405
   8.100   0.8941   0.01492   0.00828   0.0012  0.0470  1.0000  -3.8950   0.0000   0.0000   0.0000   0.2399
   8.200   0.9024   0.01508   0.00844   0.0017  0.0459  1.0000  -3.9629   0.0000   0.0000   0.0000   0.2392
   8.300   0.9104   0.01527   0.00862   0.0023  0.0448  1.0000  -4.0303   0.0000   0.0000   0.0000   0.2386
   8.400   0.9181   0.01550   0.00884   0.0028  0.0436  1.0000  -4.0955   0.0000   0.0000   0.0000   0.2378
   8.500   0.9250   0.01581   0.00915   0.0036  0.0423  1.0000  -4.1550   0.0000   0.0000   0.0000   0.2370
   8.600   0.9301   0.01630   0.00967   0.0046  0.0407  1.0000  -4.2014   0.0000   0.0000   0.0000   0.2358
   8.700   0.9373   0.01659   0.00999   0.0052  0.0400  1.0000  -4.2620   0.0000   0.0000   0.0000   0.2350
   8.800   0.9462   0.01672   0.01015   0.0056  0.0396  1.0000  -4.3337   0.0000   0.0000   0.0000   0.2345
   8.900   0.9549   0.01688   0.01033   0.0060  0.0391  1.0000  -4.4046   0.0000   0.0000   0.0000   0.2340
   9.000   0.9635   0.01704   0.01052   0.0065  0.0385  1.0000  -4.4753   0.0000   0.0000   0.0000   0.2335
   9.100   0.9720   0.01722   0.01071   0.0069  0.0378  1.0000  -4.5462   0.0000   0.0000   0.0000   0.2330
   9.200   0.9806   0.01740   0.01091   0.0073  0.0371  1.0000  -4.6176   0.0000   0.0000   0.0000   0.2326
   9.300   0.9891   0.01758   0.01110   0.0077  0.0364  1.0000  -4.6899   0.0000   0.0000   0.0000   0.2321
   9.400   0.9976   0.01776   0.01129   0.0081  0.0357  1.0000  -4.7632   0.0000   0.0000   0.0000   0.2316
   9.500   1.0061   0.01795   0.01149   0.0085  0.0350  1.0000  -4.8373   0.0000   0.0000   0.0000   0.2312
   9.600   1.0143   0.01816   0.01170   0.0089  0.0343  1.0000  -4.9108   0.0000   0.0000   0.0000   0.2307
   9.700   1.0221   0.01842   0.01196   0.0094  0.0336  1.0000  -4.9814   0.0000   0.0000   0.0000   0.2302
   9.800   1.0291   0.01876   0.01230   0.0100  0.0329  1.0000  -5.0474   0.0000   0.0000   0.0000   0.2296
   9.900   1.0347   0.01925   0.01281   0.0107  0.0321  1.0000  -5.1099   0.0000   0.0000   0.0000   0.2288
  10.000   1.0379   0.02003   0.01365   0.0118  0.0312  1.0000  -5.1523   0.0000   0.0000   0.0000   0.2276
  10.100   1.0454   0.02034   0.01399   0.0124  0.0309  1.0000  -5.2271   0.0000   0.0000   0.0000   0.2271
  10.200   1.0539   0.02053   0.01420   0.0127  0.0307  1.0000  -5.3104   0.0000   0.0000   0.0000   0.2267
  10.300   1.0621   0.02075   0.01445   0.0131  0.0304  1.0000  -5.3926   0.0000   0.0000   0.0000   0.2263
  10.400   1.0702   0.02098   0.01472   0.0136  0.0301  1.0000  -5.4737   0.0000   0.0000   0.0000   0.2259
  10.500   1.0781   0.02123   0.01501   0.0140  0.0298  1.0000  -5.5539   0.0000   0.0000   0.0000   0.2254
  10.600   1.0857   0.02150   0.01531   0.0145  0.0294  1.0000  -5.6332   0.0000   0.0000   0.0000   0.2249
  10.700   1.0933   0.02178   0.01562   0.0149  0.0290  1.0000  -5.7121   0.0000   0.0000   0.0000   0.2245
  10.800   1.1006   0.02207   0.01594   0.0154  0.0286  1.0000  -5.7907   0.0000   0.0000   0.0000   0.2240
  10.900   1.1079   0.02236   0.01626   0.0159  0.0282  1.0000  -5.8692   0.0000   0.0000   0.0000   0.2235
  11.000   1.1150   0.02266   0.01658   0.0164  0.0279  1.0000  -5.9478   0.0000   0.0000   0.0000   0.2230
  11.100   1.1220   0.02296   0.01691   0.0169  0.0275  1.0000  -6.0265   0.0000   0.0000   0.0000   0.2225
  11.200   1.1289   0.02327   0.01724   0.0174  0.0272  1.0000  -6.1052   0.0000   0.0000   0.0000   0.2220
  11.300   1.1356   0.02358   0.01757   0.0180  0.0268  1.0000  -6.1838   0.0000   0.0000   0.0000   0.2215
  11.400   1.1421   0.02390   0.01791   0.0185  0.0265  1.0000  -6.2621   0.0000   0.0000   0.0000   0.2209
  11.500   1.1484   0.02423   0.01826   0.0191  0.0262  1.0000  -6.3395   0.0000   0.0000   0.0000   0.2204
  11.600   1.1544   0.02458   0.01863   0.0197  0.0259  1.0000  -6.4153   0.0000   0.0000   0.0000   0.2198
  11.700   1.1598   0.02497   0.01904   0.0203  0.0256  1.0000  -6.4883   0.0000   0.0000   0.0000   0.2192
  11.800   1.1646   0.02542   0.01951   0.0210  0.0253  1.0000  -6.5563   0.0000   0.0000   0.0000   0.2185
  11.900   1.1678   0.02593   0.02005   0.0220  0.0250  1.0000  -6.6151   0.0000   0.0000   0.0000   0.2176
  12.000   1.1697   0.02656   0.02071   0.0231  0.0247  1.0000  -6.6636   0.0000   0.0000   0.0000   0.2166
  12.100   1.1699   0.02739   0.02159   0.0243  0.0243  1.0000  -6.6974   0.0000   0.0000   0.0000   0.2154
  12.200   1.1674   0.02860   0.02289   0.0257  0.0239  1.0000  -6.7054   0.0000   0.0000   0.0000   0.2140
  12.400   1.1737   0.02963   0.02404   0.0273  0.0236  1.0000  -6.8207   0.0000   0.0000   0.0000   0.2124
  12.500   1.1782   0.02997   0.02442   0.0280  0.0235  1.0000  -6.8909   0.0000   0.0000   0.0000   0.2118
  12.600   1.1824   0.03035   0.02483   0.0286  0.0234  1.0000  -6.9597   0.0000   0.0000   0.0000   0.2112
  12.700   1.1864   0.03075   0.02528   0.0292  0.0232  1.0000  -7.0267   0.0000   0.0000   0.0000   0.2106
  12.800   1.1901   0.03120   0.02578   0.0298  0.0230  1.0000  -7.0915   0.0000   0.0000   0.0000   0.2100
  12.900   1.1935   0.03169   0.02630   0.0304  0.0229  1.0000  -7.1543   0.0000   0.0000   0.0000   0.2094
  13.000   1.1966   0.03221   0.02687   0.0309  0.0227  1.0000  -7.2145   0.0000   0.0000   0.0000   0.2088
  13.100   1.1994   0.03278   0.02749   0.0315  0.0225  1.0000  -7.2725   0.0000   0.0000   0.0000   0.2083
  13.200   1.2019   0.03339   0.02814   0.0320  0.0223  1.0000  -7.3284   0.0000   0.0000   0.0000   0.2077
  13.300   1.2040   0.03404   0.02885   0.0324  0.0222  1.0000  -7.3815   0.0000   0.0000   0.0000   0.2072
  13.400   1.2058   0.03475   0.02960   0.0329  0.0220  1.0000  -7.4317   0.0000   0.0000   0.0000   0.2067
  13.500   1.2073   0.03549   0.03039   0.0333  0.0218  1.0000  -7.4798   0.0000   0.0000   0.0000   0.2063
  13.600   1.2087   0.03626   0.03122   0.0336  0.0217  1.0000  -7.5269   0.0000   0.0000   0.0000   0.2058
  13.700   1.2098   0.03708   0.03209   0.0339  0.0215  1.0000  -7.5724   0.0000   0.0000   0.0000   0.2054
  13.800   1.2107   0.03793   0.03299   0.0341  0.0214  1.0000  -7.6168   0.0000   0.0000   0.0000   0.2051
  13.900   1.2115   0.03883   0.03394   0.0343  0.0212  1.0000  -7.6596   0.0000   0.0000   0.0000   0.2048
  14.000   1.2121   0.03977   0.03493   0.0344  0.0211  1.0000  -7.7010   0.0000   0.0000   0.0000   0.2045
  14.100   1.2123   0.04074   0.03596   0.0344  0.0210  1.0000  -7.7403   0.0000   0.0000   0.0000   0.2043
  14.200   1.2124   0.04178   0.03704   0.0344  0.0208  1.0000  -7.7779   0.0000   0.0000   0.0000   0.2041
  14.300   1.2123   0.04285   0.03816   0.0343  0.0207  1.0000  -7.8144   0.0000   0.0000   0.0000   0.2040
  14.400   1.2120   0.04399   0.03935   0.0341  0.0206  1.0000  -7.8486   0.0000   0.0000   0.0000   0.2039
  14.500   1.2115   0.04517   0.04058   0.0339  0.0205  1.0000  -7.8816   0.0000   0.0000   0.0000   0.2039
  14.600   1.2108   0.04642   0.04188   0.0336  0.0204  1.0000  -7.9122   0.0000   0.0000   0.0000   0.2039
  14.700   1.2098   0.04772   0.04323   0.0332  0.0203  1.0000  -7.9408   0.0000   0.0000   0.0000   0.2040
  14.800   1.2086   0.04908   0.04464   0.0327  0.0202  1.0000  -7.9672   0.0000   0.0000   0.0000   0.2041
  14.900   1.2069   0.05051   0.04612   0.0322  0.0201  1.0000  -7.9898   0.0000   0.0000   0.0000   0.2043
  15.000   1.2051   0.05199   0.04765   0.0316  0.0200  1.0000  -8.0105   0.0000   0.0000   0.0000   0.2045


