xflr5 v6.61

 Calculated polar for: NACA 4412

 1 1 Reynolds number fixed          Mach number fixed         

 xtrf =   1.000 (top)        1.000 (bottom)
 Mach =   0.000     Re =     0.800 e 6     Ncrit =   9.000

  alpha     CL        CD       CDp       Cm    Top Xtr Bot Xtr   Cpmin    Chinge    XCp    
 ------- -------- --------- --------- -------- ------- ------- -------- --------- ---------
 -13.900  -0.7494   0.07124   0.06876  -0.0653  1.0000  0.0167  -8.0296   0.0000   0.0000   0.0000   0.1436
 -13.800  -0.7648   0.06694   0.06440  -0.0683  1.0000  0.0166  -8.2138   0.0000   0.0000   0.0000   0.1417
 -13.700  -0.7858   0.06196   0.05937  -0.0719  1.0000  0.0166  -8.4558   0.0000   0.0000   0.0000   0.1400
 -13.600  -0.8057   0.05711   0.05447  -0.0755  1.0000  0.0165  -8.6803   0.0000   0.0000   0.0000   0.1382
 -13.500  -0.8248   0.05223   0.04953  -0.0793  1.0000  0.0165  -8.8952   0.0000   0.0000   0.0000   0.1361
 -13.400  -0.8431   0.04704   0.04426  -0.0837  1.0000  0.0164  -9.1087   0.0000   0.0000   0.0000   0.1333
 -13.300  -0.8613   0.04125   0.03836  -0.0900  1.0000  0.0163  -9.3322   0.0000   0.0000   0.0000   0.1286
 -13.200  -0.8818   0.03844   0.03549  -0.0918  1.0000  0.0163  -9.4806   0.0000   0.0000   0.0000   0.1296
 -13.100  -0.9012   0.03755   0.03458  -0.0893  1.0000  0.0162  -9.5676   0.0000   0.0000   0.0000   0.1349
 -13.000  -0.9135   0.03659   0.03358  -0.0875  1.0000  0.0162  -9.6105   0.0000   0.0000   0.0000   0.1386
 -12.900  -0.9228   0.03567   0.03261  -0.0859  1.0000  0.0162  -9.6340   0.0000   0.0000   0.0000   0.1415
 -12.800  -0.9302   0.03482   0.03169  -0.0844  1.0000  0.0163  -9.6437   0.0000   0.0000   0.0000   0.1441
 -12.700  -0.9283   0.03362   0.03039  -0.0850  0.9994  0.0163  -9.6044   0.0000   0.0000   0.0000   0.1435
 -12.600  -0.9204   0.03237   0.02902  -0.0865  0.9984  0.0164  -9.5301   0.0000   0.0000   0.0000   0.1412
 -12.500  -0.9117   0.03130   0.02785  -0.0878  0.9975  0.0165  -9.4452   0.0000   0.0000   0.0000   0.1390
 -12.400  -0.9021   0.03038   0.02682  -0.0889  0.9967  0.0166  -9.3510   0.0000   0.0000   0.0000   0.1368
 -12.300  -0.8950   0.02893   0.02524  -0.0903  0.9958  0.0167  -9.2910   0.0000   0.0000   0.0000   0.1346
 -12.200  -0.8871   0.02772   0.02396  -0.0913  0.9950  0.0169  -9.2140   0.0000   0.0000   0.0000   0.1326
 -12.100  -0.8782   0.02695   0.02315  -0.0919  0.9939  0.0170  -9.1144   0.0000   0.0000   0.0000   0.1309
 -12.000  -0.8681   0.02635   0.02252  -0.0926  0.9929  0.0171  -9.0019   0.0000   0.0000   0.0000   0.1291
 -11.900  -0.8573   0.02583   0.02197  -0.0932  0.9920  0.0172  -8.8831   0.0000   0.0000   0.0000   0.1271
 -11.800  -0.8461   0.02536   0.02146  -0.0939  0.9911  0.0174  -8.7615   0.0000   0.0000   0.0000   0.1249
 -11.700  -0.8345   0.02490   0.02097  -0.0946  0.9904  0.0175  -8.6383   0.0000   0.0000   0.0000   0.1227
 -11.600  -0.8227   0.02447   0.02050  -0.0953  0.9897  0.0176  -8.5139   0.0000   0.0000   0.0000   0.1202
 -11.500  -0.8107   0.02404   0.02003  -0.0960  0.9892  0.0178  -8.3895   0.0000   0.0000   0.0000   0.1177
 -11.400  -0.7985   0.02361   0.01955  -0.0968  0.9886  0.0180  -8.2687   0.0000   0.0000   0.0000   0.1150
 -11.300  -0.7862   0.02317   0.01906  -0.0975  0.9881  0.0182  -8.1537   0.0000   0.0000   0.0000   0.1122
 -11.200  -0.7738   0.02272   0.01855  -0.0983  0.9877  0.0184  -8.0402   0.0000   0.0000   0.0000   0.1093
 -11.100  -0.7612   0.02228   0.01805  -0.0990  0.9873  0.0186  -7.9273   0.0000   0.0000   0.0000   0.1063
 -11.000  -0.7503   0.02187   0.01757  -0.0994  0.9862  0.0188  -7.8242   0.0000   0.0000   0.0000   0.1039
 -10.900  -0.7399   0.02147   0.01710  -0.0996  0.9847  0.0189  -7.7243   0.0000   0.0000   0.0000   0.1018
 -10.800  -0.7284   0.02108   0.01665  -0.1001  0.9837  0.0191  -7.6192   0.0000   0.0000   0.0000   0.0991
 -10.700  -0.7162   0.02073   0.01622  -0.1006  0.9828  0.0192  -7.5107   0.0000   0.0000   0.0000   0.0961
 -10.600  -0.7054   0.02001   0.01543  -0.1012  0.9819  0.0194  -7.4221   0.0000   0.0000   0.0000   0.0932
 -10.500  -0.6939   0.01940   0.01479  -0.1018  0.9812  0.0197  -7.3219   0.0000   0.0000   0.0000   0.0899
 -10.400  -0.6813   0.01901   0.01438  -0.1025  0.9806  0.0199  -7.2076   0.0000   0.0000   0.0000   0.0863
 -10.300  -0.6683   0.01869   0.01404  -0.1032  0.9801  0.0201  -7.0890   0.0000   0.0000   0.0000   0.0823
 -10.200  -0.6550   0.01840   0.01373  -0.1039  0.9797  0.0203  -6.9694   0.0000   0.0000   0.0000   0.0781
 -10.100  -0.6415   0.01811   0.01342  -0.1046  0.9793  0.0205  -6.8505   0.0000   0.0000   0.0000   0.0737
 -10.000  -0.6280   0.01783   0.01311  -0.1053  0.9789  0.0207  -6.7330   0.0000   0.0000   0.0000   0.0690
  -9.900  -0.6145   0.01754   0.01278  -0.1060  0.9786  0.0210  -6.6178   0.0000   0.0000   0.0000   0.0642
  -9.800  -0.6012   0.01724   0.01245  -0.1067  0.9781  0.0212  -6.5050   0.0000   0.0000   0.0000   0.0592
  -9.700  -0.5894   0.01697   0.01213  -0.1070  0.9770  0.0215  -6.4010   0.0000   0.0000   0.0000   0.0552
  -9.600  -0.5794   0.01673   0.01184  -0.1069  0.9749  0.0217  -6.3056   0.0000   0.0000   0.0000   0.0522
  -9.500  -0.5676   0.01648   0.01155  -0.1072  0.9735  0.0219  -6.2023   0.0000   0.0000   0.0000   0.0479
  -9.400  -0.5552   0.01628   0.01129  -0.1075  0.9724  0.0221  -6.0957   0.0000   0.0000   0.0000   0.0431
  -9.300  -0.5439   0.01582   0.01080  -0.1078  0.9712  0.0225  -6.0017   0.0000   0.0000   0.0000   0.0384
  -9.200  -0.5322   0.01544   0.01041  -0.1082  0.9702  0.0228  -5.9004   0.0000   0.0000   0.0000   0.0334
  -9.100  -0.5197   0.01521   0.01017  -0.1086  0.9692  0.0231  -5.7910   0.0000   0.0000   0.0000   0.0277
  -9.000  -0.5071   0.01501   0.00996  -0.1090  0.9684  0.0234  -5.6810   0.0000   0.0000   0.0000   0.0216
  -8.900  -0.4946   0.01481   0.00975  -0.1094  0.9675  0.0237  -5.5729   0.0000   0.0000   0.0000   0.0153
  -8.800  -0.4858   0.01465   0.00957  -0.1090  0.9645  0.0240  -5.4866   0.0000   0.0000   0.0000   0.0123
  -8.700  -0.4753   0.01446   0.00935  -0.1089  0.9623  0.0243  -5.3975   0.0000   0.0000   0.0000   0.0075
  -8.600  -0.4641   0.01426   0.00912  -0.1089  0.9604  0.0246  -5.3070   0.0000   0.0000   0.0000   0.0019
  -8.500  -0.4527   0.01406   0.00888  -0.1090  0.9586  0.0250  -5.2164   0.0000   0.0000   0.0000  -0.0043
  -8.400  -0.4411   0.01388   0.00866  -0.1091  0.9570  0.0253  -5.1257   0.0000   0.0000   0.0000  -0.0108
  -8.300  -0.4309   0.01375   0.00848  -0.1089  0.9544  0.0255  -5.0400   0.0000   0.0000   0.0000  -0.0162
  -8.200  -0.4223   0.01335   0.00807  -0.1085  0.9512  0.0259  -4.9684   0.0000   0.0000   0.0000  -0.0205
  -8.100  -0.4122   0.01311   0.00782  -0.1084  0.9486  0.0263  -4.8837   0.0000   0.0000   0.0000  -0.0265
  -8.000  -0.4016   0.01293   0.00763  -0.1083  0.9465  0.0266  -4.7950   0.0000   0.0000   0.0000  -0.0333
  -7.900  -0.3905   0.01277   0.00745  -0.1082  0.9447  0.0270  -4.7052   0.0000   0.0000   0.0000  -0.0410
  -7.800  -0.3806   0.01263   0.00731  -0.1080  0.9418  0.0274  -4.6207   0.0000   0.0000   0.0000  -0.0477
  -7.700  -0.3702   0.01250   0.00715  -0.1078  0.9391  0.0278  -4.5357   0.0000   0.0000   0.0000  -0.0552
  -7.600  -0.3596   0.01237   0.00699  -0.1077  0.9368  0.0283  -4.4505   0.0000   0.0000   0.0000  -0.0636
  -7.500  -0.3488   0.01225   0.00684  -0.1076  0.9347  0.0287  -4.3652   0.0000   0.0000   0.0000  -0.0728
  -7.400  -0.3376   0.01215   0.00670  -0.1076  0.9329  0.0291  -4.2788   0.0000   0.0000   0.0000  -0.0831
  -7.300  -0.3278   0.01185   0.00639  -0.1074  0.9303  0.0297  -4.2037   0.0000   0.0000   0.0000  -0.0921
  -7.200  -0.3176   0.01167   0.00621  -0.1073  0.9275  0.0302  -4.1221   0.0000   0.0000   0.0000  -0.1023
  -7.100  -0.3071   0.01154   0.00607  -0.1071  0.9248  0.0307  -4.0384   0.0000   0.0000   0.0000  -0.1137
  -7.000  -0.2962   0.01142   0.00593  -0.1071  0.9225  0.0312  -3.9548   0.0000   0.0000   0.0000  -0.1263
  -6.900  -0.2852   0.01130   0.00579  -0.1070  0.9205  0.0317  -3.8718   0.0000   0.0000   0.0000  -0.1403
  -6.800  -0.2745   0.01119   0.00566  -0.1069  0.9177  0.0323  -3.7909   0.0000   0.0000   0.0000  -0.1547
  -6.700  -0.2638   0.01109   0.00553  -0.1068  0.9147  0.0328  -3.7118   0.0000   0.0000   0.0000  -0.1704
  -6.600  -0.2530   0.01098   0.00539  -0.1067  0.9120  0.0333  -3.6374   0.0000   0.0000   0.0000  -0.1876
  -6.500  -0.2426   0.01074   0.00515  -0.1066  0.9095  0.0341  -3.5665   0.0000   0.0000   0.0000  -0.2055
  -6.300  -0.2209   0.01052   0.00492  -0.1064  0.9043  0.0355  -3.4146   0.0000   0.0000   0.0000  -0.2490
  -6.200  -0.2100   0.01043   0.00481  -0.1064  0.9012  0.0363  -3.3402   0.0000   0.0000   0.0000  -0.2740
  -6.100  -0.1990   0.01035   0.00470  -0.1063  0.8984  0.0370  -3.2665   0.0000   0.0000   0.0000  -0.3021
  -6.000  -0.1878   0.01027   0.00459  -0.1062  0.8958  0.0376  -3.1929   0.0000   0.0000   0.0000  -0.3341
  -5.900  -0.1773   0.01008   0.00438  -0.1061  0.8929  0.0386  -3.1246   0.0000   0.0000   0.0000  -0.3679
  -5.800  -0.1665   0.00995   0.00426  -0.1060  0.8895  0.0395  -3.0529   0.0000   0.0000   0.0000  -0.4069
  -5.700  -0.1555   0.00986   0.00417  -0.1060  0.8864  0.0404  -2.9803   0.0000   0.0000   0.0000  -0.4523
  -5.600  -0.1445   0.00979   0.00407  -0.1059  0.8836  0.0413  -2.9082   0.0000   0.0000   0.0000  -0.5052
  -5.500  -0.1333   0.00972   0.00398  -0.1059  0.8807  0.0423  -2.8367   0.0000   0.0000   0.0000  -0.5673
  -5.400  -0.1224   0.00962   0.00386  -0.1058  0.8773  0.0433  -2.7676   0.0000   0.0000   0.0000  -0.6392
  -5.300  -0.1116   0.00948   0.00372  -0.1057  0.8740  0.0446  -2.6991   0.0000   0.0000   0.0000  -0.7241
  -5.200  -0.1005   0.00940   0.00363  -0.1057  0.8710  0.0458  -2.6313   0.0000   0.0000   0.0000  -0.8299
  -5.100  -0.0894   0.00933   0.00354  -0.1056  0.8679  0.0470  -2.5662   0.0000   0.0000   0.0000  -0.9630
  -5.000  -0.0783   0.00927   0.00346  -0.1056  0.8642  0.0481  -2.5020   0.0000   0.0000   0.0000  -1.1338
  -4.900  -0.0673   0.00916   0.00334  -0.1055  0.8607  0.0495  -2.4399   0.0000   0.0000   0.0000  -1.3570
  -4.800  -0.0563   0.00906   0.00323  -0.1055  0.8575  0.0511  -2.3770   0.0000   0.0000   0.0000  -1.6674
  -4.700  -0.0452   0.00899   0.00316  -0.1054  0.8540  0.0527  -2.3135   0.0000   0.0000   0.0000  -2.1361
  -4.600  -0.0341   0.00894   0.00309  -0.1054  0.8501  0.0542  -2.2506   0.0000   0.0000   0.0000  -2.9137
  -4.500  -0.0230   0.00887   0.00300  -0.1053  0.8465  0.0558  -2.1893   0.0000   0.0000   0.0000  -4.4328
  -4.400  -0.0120   0.00877   0.00290  -0.1053  0.8433  0.0580  -2.1284   0.0000   0.0000   0.0000  -8.7072
  -4.300  -0.0009   0.00871   0.00284  -0.1052  0.8394  0.0599  -2.0683   0.0000   0.0000   0.0000  -123.4967
  -4.200   0.0103   0.00866   0.00277  -0.1052  0.8355  0.0618  -2.0112   0.0000   0.0000   0.0000  10.6695
  -4.100   0.0213   0.00859   0.00268  -0.1051  0.8319  0.0641  -1.9558   0.0000   0.0000   0.0000   5.2762
  -4.000   0.0324   0.00851   0.00262  -0.1051  0.8280  0.0667  -1.8998   0.0000   0.0000   0.0000   3.5545
  -3.900   0.0436   0.00846   0.00256  -0.1051  0.8238  0.0691  -1.8440   0.0000   0.0000   0.0000   2.7063
  -3.800   0.0547   0.00842   0.00249  -0.1050  0.8199  0.0715  -1.7892   0.0000   0.0000   0.0000   2.2050
  -3.700   0.0657   0.00834   0.00242  -0.1050  0.8160  0.0747  -1.7349   0.0000   0.0000   0.0000   1.8748
  -3.600   0.0769   0.00829   0.00237  -0.1049  0.8117  0.0778  -1.6805   0.0000   0.0000   0.0000   1.6378
  -3.500   0.0880   0.00825   0.00230  -0.1049  0.8076  0.0808  -1.6269   0.0000   0.0000   0.0000   1.4612
  -3.400   0.0991   0.00818   0.00225  -0.1048  0.8036  0.0847  -1.5772   0.0000   0.0000   0.0000   1.3250
  -3.300   0.1102   0.00814   0.00220  -0.1048  0.7991  0.0883  -1.5274   0.0000   0.0000   0.0000   1.2151
  -3.200   0.1213   0.00809   0.00214  -0.1048  0.7947  0.0922  -1.4785   0.0000   0.0000   0.0000   1.1262
  -3.100   0.1324   0.00804   0.00210  -0.1047  0.7905  0.0967  -1.4298   0.0000   0.0000   0.0000   1.0521
  -3.000   0.1436   0.00801   0.00205  -0.1047  0.7858  0.1007  -1.3812   0.0000   0.0000   0.0000   0.9889
  -2.900   0.1545   0.00795   0.00201  -0.1046  0.7813  0.1060  -1.3336   0.0000   0.0000   0.0000   0.9356
  -2.800   0.1657   0.00793   0.00197  -0.1046  0.7768  0.1108  -1.2859   0.0000   0.0000   0.0000   0.8889
  -2.700   0.1768   0.00787   0.00193  -0.1046  0.7720  0.1166  -1.2398   0.0000   0.0000   0.0000   0.8483
  -2.600   0.1878   0.00785   0.00189  -0.1045  0.7675  0.1221  -1.1961   0.0000   0.0000   0.0000   0.8125
  -2.500   0.1989   0.00780   0.00186  -0.1045  0.7627  0.1284  -1.1527   0.0000   0.0000   0.0000   0.7806
  -2.400   0.2100   0.00777   0.00183  -0.1045  0.7577  0.1345  -1.1096   0.0000   0.0000   0.0000   0.7521
  -2.300   0.2210   0.00774   0.00180  -0.1044  0.7531  0.1415  -1.0672   0.0000   0.0000   0.0000   0.7266
  -2.200   0.2322   0.00771   0.00177  -0.1044  0.7480  0.1481  -1.0264   0.0000   0.0000   0.0000   0.7033
  -2.100   0.2431   0.00767   0.00174  -0.1043  0.7430  0.1559  -0.9873   0.0000   0.0000   0.0000   0.6824
  -2.000   0.2542   0.00765   0.00172  -0.1043  0.7382  0.1634  -0.9484   0.0000   0.0000   0.0000   0.6631
  -1.900   0.2653   0.00762   0.00170  -0.1043  0.7329  0.1716  -0.9098   0.0000   0.0000   0.0000   0.6455
  -1.700   0.2874   0.00756   0.00166  -0.1042  0.7227  0.1886  -0.8354   0.0000   0.0000   0.0000   0.6144
  -1.600   0.2983   0.00755   0.00164  -0.1041  0.7174  0.1979  -0.8003   0.0000   0.0000   0.0000   0.6006
  -1.500   0.3093   0.00752   0.00163  -0.1041  0.7124  0.2076  -0.7654   0.0000   0.0000   0.0000   0.5878
  -1.400   0.3204   0.00749   0.00161  -0.1040  0.7069  0.2174  -0.7308   0.0000   0.0000   0.0000   0.5758
  -1.300   0.3313   0.00748   0.00160  -0.1040  0.7019  0.2275  -0.6968   0.0000   0.0000   0.0000   0.5647
  -1.200   0.3424   0.00746   0.00159  -0.1040  0.6964  0.2386  -0.6754   0.0000   0.0000   0.0000   0.5542
  -1.100   0.3533   0.00744   0.00158  -0.1039  0.6910  0.2500  -0.6832   0.0000   0.0000   0.0000   0.5444
  -1.000   0.3643   0.00741   0.00158  -0.1039  0.6857  0.2619  -0.6911   0.0000   0.0000   0.0000   0.5353
  -0.900   0.3753   0.00739   0.00157  -0.1038  0.6801  0.2746  -0.6992   0.0000   0.0000   0.0000   0.5266
  -0.800   0.3861   0.00738   0.00157  -0.1038  0.6750  0.2878  -0.7073   0.0000   0.0000   0.0000   0.5185
  -0.700   0.3972   0.00735   0.00157  -0.1037  0.6694  0.3018  -0.7154   0.0000   0.0000   0.0000   0.5108
  -0.500   0.4190   0.00731   0.00157  -0.1036  0.6586  0.3335  -0.7316   0.0000   0.0000   0.0000   0.4966
  -0.400   0.4298   0.00728   0.00157  -0.1036  0.6531  0.3517  -0.7399   0.0000   0.0000   0.0000   0.4901
  -0.300   0.4406   0.00724   0.00157  -0.1035  0.6480  0.3736  -0.7483   0.0000   0.0000   0.0000   0.4839
  -0.200   0.4514   0.00717   0.00157  -0.1035  0.6424  0.4014  -0.7566   0.0000   0.0000   0.0000   0.4781
  -0.100   0.4618   0.00708   0.00158  -0.1034  0.6373  0.4440  -0.7648   0.0000   0.0000   0.0000   0.4726
   0.000   0.4724   0.00694   0.00160  -0.1034  0.6319  0.5025  -0.7730   0.0000   0.0000   0.0000   0.4674
   0.100   0.4826   0.00683   0.00163  -0.1032  0.6266  0.5597  -0.7814   0.0000   0.0000   0.0000   0.4623
   0.200   0.4929   0.00672   0.00165  -0.1031  0.6217  0.6123  -0.7898   0.0000   0.0000   0.0000   0.4574
   0.300   0.5030   0.00662   0.00168  -0.1029  0.6164  0.6635  -0.7982   0.0000   0.0000   0.0000   0.4527
   0.400   0.5127   0.00653   0.00171  -0.1026  0.6116  0.7140  -0.8064   0.0000   0.0000   0.0000   0.4481
   0.500   0.5224   0.00641   0.00174  -0.1022  0.6065  0.7649  -0.8146   0.0000   0.0000   0.0000   0.4436
   0.600   0.5311   0.00631   0.00178  -0.1016  0.6015  0.8180  -0.8225   0.0000   0.0000   0.0000   0.4390
   0.700   0.5389   0.00621   0.00182  -0.1007  0.5971  0.8725  -0.8300   0.0000   0.0000   0.0000   0.4345
   0.800   0.5471   0.00615   0.00186  -0.0998  0.5923  0.9238  -0.8378   0.0000   0.0000   0.0000   0.4299
   0.900   0.5626   0.00616   0.00188  -0.1006  0.5873  0.9642  -0.8495   0.0000   0.0000   0.0000   0.4262
   1.000   0.5813   0.00619   0.00188  -0.1022  0.5822  0.9865  -0.8633   0.0000   0.0000   0.0000   0.4231
   1.100   0.5998   0.00623   0.00189  -0.1038  0.5770  0.9984  -0.8771   0.0000   0.0000   0.0000   0.4203
   1.200   0.6114   0.00629   0.00190  -0.1039  0.5726  1.0000  -0.8870   0.0000   0.0000   0.0000   0.4171
   1.300   0.6220   0.00632   0.00192  -0.1038  0.5681  1.0000  -0.8964   0.0000   0.0000   0.0000   0.4139
   1.400   0.6324   0.00637   0.00194  -0.1037  0.5636  1.0000  -0.9060   0.0000   0.0000   0.0000   0.4108
   1.500   0.6428   0.00643   0.00196  -0.1035  0.5596  1.0000  -0.9155   0.0000   0.0000   0.0000   0.4078
   1.600   0.6535   0.00646   0.00198  -0.1034  0.5554  1.0000  -0.9253   0.0000   0.0000   0.0000   0.4049
   1.700   0.6640   0.00651   0.00200  -0.1032  0.5512  1.0000  -0.9351   0.0000   0.0000   0.0000   0.4020
   1.900   0.6852   0.00661   0.00204  -0.1030  0.5435  1.0000  -0.9553   0.0000   0.0000   0.0000   0.3966
   2.000   0.6959   0.00665   0.00207  -0.1029  0.5396  1.0000  -0.9656   0.0000   0.0000   0.0000   0.3941
   2.100   0.7064   0.00671   0.00209  -0.1027  0.5359  1.0000  -0.9758   0.0000   0.0000   0.0000   0.3916
   2.200   0.7170   0.00676   0.00212  -0.1026  0.5324  1.0000  -0.9865   0.0000   0.0000   0.0000   0.3892
   2.300   0.7279   0.00680   0.00215  -0.1025  0.5287  1.0000  -0.9972   0.0000   0.0000   0.0000   0.3868
   2.400   0.7385   0.00685   0.00218  -0.1024  0.5252  1.0000  -1.0079   0.0000   0.0000   0.0000   0.3845
   2.500   0.7490   0.00692   0.00221  -0.1023  0.5219  1.0000  -1.0189   0.0000   0.0000   0.0000   0.3823
   2.600   0.7599   0.00695   0.00224  -0.1022  0.5186  1.0000  -1.0302   0.0000   0.0000   0.0000   0.3802
   2.700   0.7707   0.00700   0.00227  -0.1022  0.5151  1.0000  -1.0415   0.0000   0.0000   0.0000   0.3781
   2.800   0.7814   0.00705   0.00230  -0.1020  0.5118  1.0000  -1.0531   0.0000   0.0000   0.0000   0.3760
   2.900   0.7918   0.00712   0.00234  -0.1019  0.5087  1.0000  -1.0646   0.0000   0.0000   0.0000   0.3740
   3.000   0.8028   0.00716   0.00237  -0.1019  0.5056  1.0000  -1.0767   0.0000   0.0000   0.0000   0.3721
   3.100   0.8137   0.00720   0.00241  -0.1018  0.5024  1.0000  -1.0890   0.0000   0.0000   0.0000   0.3702
   3.200   0.8243   0.00726   0.00245  -0.1017  0.4992  1.0000  -1.1012   0.0000   0.0000   0.0000   0.3684
   3.300   0.8348   0.00732   0.00249  -0.1016  0.4963  1.0000  -1.1137   0.0000   0.0000   0.0000   0.3666
   3.400   0.8457   0.00737   0.00253  -0.1015  0.4933  1.0000  -1.1267   0.0000   0.0000   0.0000   0.3648
   3.500   0.8566   0.00741   0.00256  -0.1015  0.4902  1.0000  -1.1401   0.0000   0.0000   0.0000   0.3632
   3.600   0.8673   0.00746   0.00260  -0.1014  0.4871  1.0000  -1.1536   0.0000   0.0000   0.0000   0.3615
   3.700   0.8779   0.00753   0.00265  -0.1013  0.4842  1.0000  -1.1674   0.0000   0.0000   0.0000   0.3598
   3.800   0.8886   0.00758   0.00269  -0.1012  0.4813  1.0000  -1.1816   0.0000   0.0000   0.0000   0.3583
   3.900   0.8995   0.00762   0.00274  -0.1011  0.4782  1.0000  -1.1967   0.0000   0.0000   0.0000   0.3567
   4.000   0.9103   0.00768   0.00278  -0.1011  0.4751  1.0000  -1.2122   0.0000   0.0000   0.0000   0.3552
   4.100   0.9208   0.00774   0.00283  -0.1010  0.4721  1.0000  -1.2284   0.0000   0.0000   0.0000   0.3537
   4.200   0.9314   0.00781   0.00288  -0.1008  0.4692  1.0000  -1.2461   0.0000   0.0000   0.0000   0.3522
   4.300   0.9423   0.00785   0.00292  -0.1008  0.4660  1.0000  -1.2668   0.0000   0.0000   0.0000   0.3508
   4.400   0.9530   0.00790   0.00297  -0.1007  0.4626  1.0000  -1.2912   0.0000   0.0000   0.0000   0.3494
   4.500   0.9635   0.00797   0.00302  -0.1006  0.4594  1.0000  -1.3182   0.0000   0.0000   0.0000   0.3480
   4.600   0.9740   0.00804   0.00307  -0.1005  0.4562  1.0000  -1.3467   0.0000   0.0000   0.0000   0.3467
   4.700   0.9849   0.00808   0.00312  -0.1004  0.4526  1.0000  -1.3781   0.0000   0.0000   0.0000   0.3454
   4.800   0.9955   0.00814   0.00317  -0.1003  0.4488  1.0000  -1.4102   0.0000   0.0000   0.0000   0.3441
   4.900   1.0057   0.00822   0.00323  -0.1002  0.4450  1.0000  -1.4429   0.0000   0.0000   0.0000   0.3428
   5.000   1.0165   0.00827   0.00328  -0.1001  0.4411  1.0000  -1.4782   0.0000   0.0000   0.0000   0.3415
   5.100   1.0271   0.00832   0.00333  -0.1000  0.4368  1.0000  -1.5148   0.0000   0.0000   0.0000   0.3403
   5.200   1.0372   0.00841   0.00338  -0.0998  0.4326  1.0000  -1.5518   0.0000   0.0000   0.0000   0.3391
   5.300   1.0479   0.00846   0.00344  -0.0998  0.4284  1.0000  -1.5900   0.0000   0.0000   0.0000   0.3379
   5.400   1.0584   0.00852   0.00349  -0.0997  0.4238  1.0000  -1.6294   0.0000   0.0000   0.0000   0.3367
   5.500   1.0685   0.00861   0.00356  -0.0995  0.4195  1.0000  -1.6691   0.0000   0.0000   0.0000   0.3356
   5.600   1.0792   0.00867   0.00361  -0.0994  0.4151  1.0000  -1.7116   0.0000   0.0000   0.0000   0.3344
   5.700   1.0896   0.00873   0.00367  -0.0993  0.4104  1.0000  -1.7547   0.0000   0.0000   0.0000   0.3333
   5.800   1.0996   0.00883   0.00374  -0.0991  0.4059  1.0000  -1.7973   0.0000   0.0000   0.0000   0.3322
   5.900   1.1103   0.00888   0.00380  -0.0990  0.4010  1.0000  -1.8432   0.0000   0.0000   0.0000   0.3311
   6.000   1.1204   0.00896   0.00386  -0.0989  0.3958  1.0000  -1.8891   0.0000   0.0000   0.0000   0.3301
   6.100   1.1307   0.00904   0.00393  -0.0987  0.3908  1.0000  -1.9355   0.0000   0.0000   0.0000   0.3290
   6.200   1.1409   0.00912   0.00400  -0.0986  0.3851  1.0000  -1.9823   0.0000   0.0000   0.0000   0.3280
   6.300   1.1508   0.00921   0.00408  -0.0984  0.3796  1.0000  -2.0292   0.0000   0.0000   0.0000   0.3269
   6.400   1.1610   0.00930   0.00415  -0.0982  0.3733  1.0000  -2.0790   0.0000   0.0000   0.0000   0.3259
   6.500   1.1708   0.00941   0.00423  -0.0980  0.3671  1.0000  -2.1282   0.0000   0.0000   0.0000   0.3249
   6.600   1.1807   0.00950   0.00431  -0.0978  0.3601  1.0000  -2.1782   0.0000   0.0000   0.0000   0.3239
   6.700   1.1904   0.00962   0.00440  -0.0976  0.3534  1.0000  -2.2298   0.0000   0.0000   0.0000   0.3229
   6.800   1.1999   0.00974   0.00449  -0.0973  0.3458  1.0000  -2.2823   0.0000   0.0000   0.0000   0.3219
   6.900   1.2095   0.00986   0.00459  -0.0971  0.3382  1.0000  -2.3353   0.0000   0.0000   0.0000   0.3209
   7.000   1.2187   0.01000   0.00469  -0.0968  0.3302  1.0000  -2.3876   0.0000   0.0000   0.0000   0.3199
   7.100   1.2280   0.01015   0.00480  -0.0965  0.3213  1.0000  -2.4404   0.0000   0.0000   0.0000   0.3190
   7.200   1.2371   0.01030   0.00492  -0.0961  0.3122  1.0000  -2.4944   0.0000   0.0000   0.0000   0.3180
   7.300   1.2460   0.01046   0.00504  -0.0958  0.3029  1.0000  -2.5498   0.0000   0.0000   0.0000   0.3170
   7.400   1.2547   0.01064   0.00517  -0.0954  0.2930  1.0000  -2.6050   0.0000   0.0000   0.0000   0.3161
   7.500   1.2631   0.01084   0.00532  -0.0950  0.2825  1.0000  -2.6599   0.0000   0.0000   0.0000   0.3151
   7.600   1.2714   0.01104   0.00546  -0.0946  0.2715  1.0000  -2.7149   0.0000   0.0000   0.0000   0.3141
   7.700   1.2797   0.01125   0.00562  -0.0941  0.2602  1.0000  -2.7699   0.0000   0.0000   0.0000   0.3132
   7.800   1.2876   0.01147   0.00578  -0.0936  0.2485  1.0000  -2.8246   0.0000   0.0000   0.0000   0.3122
   7.900   1.2954   0.01171   0.00596  -0.0931  0.2365  1.0000  -2.8789   0.0000   0.0000   0.0000   0.3112
   8.000   1.3029   0.01196   0.00614  -0.0925  0.2242  1.0000  -2.9330   0.0000   0.0000   0.0000   0.3102
   8.200   1.3173   0.01250   0.00654  -0.0913  0.1994  1.0000  -3.0456   0.0000   0.0000   0.0000   0.3083
   8.300   1.3242   0.01277   0.00675  -0.0907  0.1870  1.0000  -3.1016   0.0000   0.0000   0.0000   0.3073
   8.400   1.3310   0.01306   0.00697  -0.0900  0.1747  1.0000  -3.1573   0.0000   0.0000   0.0000   0.3063
   8.500   1.3375   0.01336   0.00720  -0.0893  0.1627  1.0000  -3.2127   0.0000   0.0000   0.0000   0.3053
   8.600   1.3439   0.01366   0.00743  -0.0886  0.1512  1.0000  -3.2679   0.0000   0.0000   0.0000   0.3043
   8.700   1.3502   0.01396   0.00767  -0.0879  0.1403  1.0000  -3.3230   0.0000   0.0000   0.0000   0.3033
   8.800   1.3563   0.01426   0.00791  -0.0871  0.1302  1.0000  -3.3780   0.0000   0.0000   0.0000   0.3023
   8.900   1.3623   0.01456   0.00816  -0.0863  0.1206  1.0000  -3.4335   0.0000   0.0000   0.0000   0.3013
   9.000   1.3682   0.01486   0.00840  -0.0855  0.1118  1.0000  -3.4913   0.0000   0.0000   0.0000   0.3003
   9.100   1.3739   0.01512   0.00863  -0.0846  0.1041  1.0000  -3.5487   0.0000   0.0000   0.0000   0.2992
   9.200   1.3792   0.01540   0.00886  -0.0837  0.0972  1.0000  -3.6048   0.0000   0.0000   0.0000   0.2982
   9.300   1.3840   0.01570   0.00912  -0.0827  0.0907  1.0000  -3.6598   0.0000   0.0000   0.0000   0.2971
   9.400   1.3898   0.01595   0.00935  -0.0818  0.0850  1.0000  -3.7184   0.0000   0.0000   0.0000   0.2961
   9.500   1.3950   0.01623   0.00960  -0.0809  0.0799  1.0000  -3.7751   0.0000   0.0000   0.0000   0.2951
   9.600   1.4005   0.01651   0.00985  -0.0800  0.0750  1.0000  -3.8332   0.0000   0.0000   0.0000   0.2941
   9.700   1.4059   0.01678   0.01011  -0.0792  0.0707  1.0000  -3.8912   0.0000   0.0000   0.0000   0.2931
   9.800   1.4113   0.01706   0.01037  -0.0783  0.0667  1.0000  -3.9496   0.0000   0.0000   0.0000   0.2921
   9.900   1.4166   0.01735   0.01064  -0.0774  0.0631  1.0000  -4.0077   0.0000   0.0000   0.0000   0.2911
  10.000   1.4223   0.01762   0.01090  -0.0767  0.0599  1.0000  -4.0676   0.0000   0.0000   0.0000   0.2902
  10.100   1.4271   0.01794   0.01120  -0.0757  0.0568  1.0000  -4.1268   0.0000   0.0000   0.0000   0.2892
  10.200   1.4331   0.01819   0.01146  -0.0750  0.0545  1.0000  -4.1917   0.0000   0.0000   0.0000   0.2883
  10.300   1.4384   0.01848   0.01174  -0.0742  0.0520  1.0000  -4.2541   0.0000   0.0000   0.0000   0.2874
  10.400   1.4429   0.01882   0.01207  -0.0733  0.0497  1.0000  -4.3134   0.0000   0.0000   0.0000   0.2865
  10.500   1.4491   0.01907   0.01233  -0.0726  0.0479  1.0000  -4.3795   0.0000   0.0000   0.0000   0.2856
  10.600   1.4543   0.01937   0.01264  -0.0718  0.0461  1.0000  -4.4428   0.0000   0.0000   0.0000   0.2847
  10.700   1.4589   0.01972   0.01297  -0.0710  0.0443  1.0000  -4.5033   0.0000   0.0000   0.0000   0.2838
  10.800   1.4640   0.02004   0.01330  -0.0702  0.0428  1.0000  -4.5659   0.0000   0.0000   0.0000   0.2830
  10.900   1.4697   0.02032   0.01360  -0.0695  0.0415  1.0000  -4.6315   0.0000   0.0000   0.0000   0.2821
  11.000   1.4746   0.02066   0.01393  -0.0688  0.0401  1.0000  -4.6946   0.0000   0.0000   0.0000   0.2813
  11.100   1.4789   0.02104   0.01431  -0.0679  0.0388  1.0000  -4.7548   0.0000   0.0000   0.0000   0.2804
  11.200   1.4831   0.02143   0.01471  -0.0671  0.0376  1.0000  -4.8144   0.0000   0.0000   0.0000   0.2796
  11.300   1.4887   0.02172   0.01503  -0.0664  0.0367  1.0000  -4.8810   0.0000   0.0000   0.0000   0.2788
  11.400   1.4938   0.02207   0.01539  -0.0657  0.0357  1.0000  -4.9452   0.0000   0.0000   0.0000   0.2780
  11.500   1.4983   0.02245   0.01578  -0.0650  0.0348  1.0000  -5.0075   0.0000   0.0000   0.0000   0.2772
  11.600   1.5021   0.02288   0.01621  -0.0642  0.0339  1.0000  -5.0672   0.0000   0.0000   0.0000   0.2764
  11.700   1.5048   0.02340   0.01673  -0.0633  0.0329  1.0000  -5.1209   0.0000   0.0000   0.0000   0.2755
  11.800   1.5103   0.02372   0.01709  -0.0627  0.0323  1.0000  -5.1881   0.0000   0.0000   0.0000   0.2748
  11.900   1.5153   0.02409   0.01748  -0.0621  0.0316  1.0000  -5.2559   0.0000   0.0000   0.0000   0.2741
  12.000   1.5197   0.02450   0.01790  -0.0614  0.0309  1.0000  -5.3225   0.0000   0.0000   0.0000   0.2733
  12.100   1.5237   0.02495   0.01836  -0.0607  0.0302  1.0000  -5.3873   0.0000   0.0000   0.0000   0.2726
  12.200   1.5270   0.02545   0.01888  -0.0600  0.0295  1.0000  -5.4491   0.0000   0.0000   0.0000   0.2718
  12.300   1.5292   0.02605   0.01948  -0.0591  0.0289  1.0000  -5.5047   0.0000   0.0000   0.0000   0.2711
  12.400   1.5326   0.02656   0.02002  -0.0584  0.0283  1.0000  -5.5663   0.0000   0.0000   0.0000   0.2703
  12.500   1.5372   0.02699   0.02048  -0.0579  0.0279  1.0000  -5.6344   0.0000   0.0000   0.0000   0.2697
  12.600   1.5413   0.02746   0.02098  -0.0573  0.0274  1.0000  -5.7006   0.0000   0.0000   0.0000   0.2690
  12.700   1.5452   0.02796   0.02150  -0.0567  0.0269  1.0000  -5.7659   0.0000   0.0000   0.0000   0.2683
  12.800   1.5486   0.02850   0.02206  -0.0561  0.0264  1.0000  -5.8293   0.0000   0.0000   0.0000   0.2677
  12.900   1.5515   0.02908   0.02266  -0.0555  0.0260  1.0000  -5.8906   0.0000   0.0000   0.0000   0.2670
  13.000   1.5537   0.02973   0.02332  -0.0548  0.0255  1.0000  -5.9484   0.0000   0.0000   0.0000   0.2663
  13.100   1.5548   0.03049   0.02409  -0.0541  0.0251  1.0000  -5.9998   0.0000   0.0000   0.0000   0.2657
  13.200   1.5554   0.03129   0.02492  -0.0534  0.0247  1.0000  -6.0483   0.0000   0.0000   0.0000   0.2650
  13.300   1.5595   0.03182   0.02549  -0.0529  0.0244  1.0000  -6.1154   0.0000   0.0000   0.0000   0.2644
  13.400   1.5630   0.03241   0.02611  -0.0525  0.0240  1.0000  -6.1797   0.0000   0.0000   0.0000   0.2638
  13.500   1.5661   0.03303   0.02675  -0.0520  0.0236  1.0000  -6.2427   0.0000   0.0000   0.0000   0.2633
  13.600   1.5690   0.03368   0.02744  -0.0515  0.0233  1.0000  -6.3044   0.0000   0.0000   0.0000   0.2627
  13.700   1.5716   0.03436   0.02814  -0.0511  0.0230  1.0000  -6.3655   0.0000   0.0000   0.0000   0.2621
  13.800   1.5738   0.03509   0.02889  -0.0506  0.0226  1.0000  -6.4244   0.0000   0.0000   0.0000   0.2616
  13.900   1.5754   0.03588   0.02970  -0.0501  0.0223  1.0000  -6.4806   0.0000   0.0000   0.0000   0.2611
  14.000   1.5763   0.03674   0.03059  -0.0496  0.0220  1.0000  -6.5328   0.0000   0.0000   0.0000   0.2605
  14.100   1.5762   0.03773   0.03160  -0.0491  0.0217  1.0000  -6.5783   0.0000   0.0000   0.0000   0.2600
  14.200   1.5745   0.03888   0.03277  -0.0486  0.0214  1.0000  -6.6147   0.0000   0.0000   0.0000   0.2595
  14.300   1.5754   0.03978   0.03372  -0.0482  0.0212  1.0000  -6.6651   0.0000   0.0000   0.0000   0.2590
  14.400   1.5777   0.04056   0.03453  -0.0479  0.0210  1.0000  -6.7242   0.0000   0.0000   0.0000   0.2585
  14.500   1.5796   0.04139   0.03540  -0.0476  0.0208  1.0000  -6.7812   0.0000   0.0000   0.0000   0.2581
  14.600   1.5812   0.04227   0.03631  -0.0473  0.0206  1.0000  -6.8370   0.0000   0.0000   0.0000   0.2577
  14.700   1.5826   0.04318   0.03726  -0.0470  0.0203  1.0000  -6.8939   0.0000   0.0000   0.0000   0.2572
  14.800   1.5837   0.04413   0.03824  -0.0467  0.0201  1.0000  -6.9500   0.0000   0.0000   0.0000   0.2568
  14.900   1.5847   0.04511   0.03925  -0.0465  0.0199  1.0000  -7.0050   0.0000   0.0000   0.0000   0.2564
  15.000   1.5855   0.04611   0.04028  -0.0463  0.0197  1.0000  -7.0594   0.0000   0.0000   0.0000   0.2561


