xflr5 v6.61

 Calculated polar for: NACA 4412

 1 1 Reynolds number fixed          Mach number fixed         

 xtrf =   1.000 (top)        1.000 (bottom)
 Mach =   0.000     Re =     0.700 e 6     Ncrit =   9.000

  alpha     CL        CD       CDp       Cm    Top Xtr Bot Xtr   Cpmin    Chinge    XCp    
 ------- -------- --------- --------- -------- ------- ------- -------- --------- ---------
 -15.000  -0.3022   0.15866   0.15660  -0.0346  1.0000  0.0198  -1.5220   0.0000   0.0000   0.0000   0.1177
 -14.900  -0.3008   0.15787   0.15581  -0.0348  1.0000  0.0199  -1.5106   0.0000   0.0000   0.0000   0.1165
 -14.800  -0.2995   0.15704   0.15499  -0.0350  1.0000  0.0200  -1.5019   0.0000   0.0000   0.0000   0.1153
 -14.700  -0.2983   0.15618   0.15412  -0.0353  1.0000  0.0201  -1.4958   0.0000   0.0000   0.0000   0.1141
 -14.600  -0.2971   0.15526   0.15321  -0.0355  1.0000  0.0203  -1.4919   0.0000   0.0000   0.0000   0.1128
 -14.500  -0.2961   0.15430   0.15225  -0.0358  1.0000  0.0205  -1.4908   0.0000   0.0000   0.0000   0.1115
 -14.400  -0.2952   0.15330   0.15125  -0.0361  1.0000  0.0207  -1.4927   0.0000   0.0000   0.0000   0.1103
 -14.300  -0.2946   0.15224   0.15019  -0.0363  1.0000  0.0210  -1.4985   0.0000   0.0000   0.0000   0.1090
 -14.200  -0.2943   0.15110   0.14905  -0.0367  1.0000  0.0213  -1.5116   0.0000   0.0000   0.0000   0.1078
 -14.100  -0.3118   0.14680   0.14475  -0.0393  1.0000  0.0222  -1.8555   0.0000   0.0000   0.0000   0.1062
 -14.000  -0.3141   0.14502   0.14297  -0.0398  1.0000  0.0223  -1.9134   0.0000   0.0000   0.0000   0.1052
 -12.800  -0.8333   0.04101   0.03818  -0.0888  1.0000  0.0175  -8.7627   0.0000   0.0000   0.0000   0.1275
 -12.700  -0.8666   0.03915   0.03624  -0.0865  1.0000  0.0173  -8.9719   0.0000   0.0000   0.0000   0.1348
 -12.600  -0.8798   0.03798   0.03501  -0.0849  1.0000  0.0173  -9.0282   0.0000   0.0000   0.0000   0.1384
 -12.500  -0.8892   0.03700   0.03399  -0.0834  1.0000  0.0173  -9.0532   0.0000   0.0000   0.0000   0.1413
 -12.400  -0.8959   0.03615   0.03308  -0.0821  1.0000  0.0174  -9.0577   0.0000   0.0000   0.0000   0.1438
 -12.300  -0.8895   0.03500   0.03186  -0.0833  0.9992  0.0175  -8.9864   0.0000   0.0000   0.0000   0.1418
 -12.200  -0.8809   0.03388   0.03066  -0.0848  0.9982  0.0176  -8.9017   0.0000   0.0000   0.0000   0.1394
 -12.100  -0.8719   0.03283   0.02952  -0.0862  0.9972  0.0177  -8.8141   0.0000   0.0000   0.0000   0.1369
 -12.000  -0.8626   0.03182   0.02843  -0.0875  0.9963  0.0178  -8.7244   0.0000   0.0000   0.0000   0.1344
 -11.900  -0.8528   0.03086   0.02738  -0.0887  0.9956  0.0180  -8.6322   0.0000   0.0000   0.0000   0.1319
 -11.800  -0.8432   0.02998   0.02642  -0.0897  0.9947  0.0181  -8.5391   0.0000   0.0000   0.0000   0.1296
 -11.700  -0.8341   0.02913   0.02549  -0.0905  0.9935  0.0183  -8.4494   0.0000   0.0000   0.0000   0.1276
 -11.600  -0.8245   0.02832   0.02458  -0.0913  0.9924  0.0184  -8.3565   0.0000   0.0000   0.0000   0.1254
 -11.500  -0.8143   0.02755   0.02371  -0.0922  0.9913  0.0186  -8.2608   0.0000   0.0000   0.0000   0.1231
 -11.400  -0.8037   0.02681   0.02287  -0.0930  0.9904  0.0188  -8.1624   0.0000   0.0000   0.0000   0.1206
 -11.300  -0.7925   0.02613   0.02208  -0.0938  0.9896  0.0190  -8.0605   0.0000   0.0000   0.0000   0.1180
 -11.200  -0.7808   0.02553   0.02137  -0.0947  0.9889  0.0191  -7.9592   0.0000   0.0000   0.0000   0.1152
 -11.100  -0.7686   0.02502   0.02075  -0.0955  0.9883  0.0193  -7.8555   0.0000   0.0000   0.0000   0.1123
 -11.000  -0.7593   0.02381   0.01946  -0.0964  0.9877  0.0195  -7.7877   0.0000   0.0000   0.0000   0.1096
 -10.900  -0.7474   0.02321   0.01884  -0.0972  0.9872  0.0197  -7.6805   0.0000   0.0000   0.0000   0.1065
 -10.800  -0.7370   0.02279   0.01840  -0.0975  0.9859  0.0199  -7.5761   0.0000   0.0000   0.0000   0.1044
 -10.700  -0.7263   0.02242   0.01801  -0.0978  0.9845  0.0200  -7.4692   0.0000   0.0000   0.0000   0.1021
 -10.600  -0.7146   0.02205   0.01762  -0.0983  0.9834  0.0202  -7.3584   0.0000   0.0000   0.0000   0.0992
 -10.500  -0.7025   0.02169   0.01722  -0.0989  0.9825  0.0204  -7.2471   0.0000   0.0000   0.0000   0.0961
 -10.400  -0.6901   0.02131   0.01680  -0.0995  0.9817  0.0206  -7.1365   0.0000   0.0000   0.0000   0.0927
 -10.300  -0.6775   0.02092   0.01636  -0.1002  0.9810  0.0208  -7.0272   0.0000   0.0000   0.0000   0.0891
 -10.200  -0.6647   0.02052   0.01590  -0.1009  0.9804  0.0211  -6.9193   0.0000   0.0000   0.0000   0.0852
 -10.100  -0.6517   0.02012   0.01544  -0.1016  0.9799  0.0213  -6.8120   0.0000   0.0000   0.0000   0.0811
 -10.000  -0.6386   0.01972   0.01498  -0.1023  0.9794  0.0216  -6.7051   0.0000   0.0000   0.0000   0.0767
  -9.900  -0.6252   0.01934   0.01452  -0.1030  0.9790  0.0218  -6.5980   0.0000   0.0000   0.0000   0.0721
  -9.800  -0.6115   0.01900   0.01411  -0.1038  0.9786  0.0220  -6.4895   0.0000   0.0000   0.0000   0.0671
  -9.700  -0.5975   0.01870   0.01374  -0.1046  0.9783  0.0222  -6.3787   0.0000   0.0000   0.0000   0.0618
  -9.600  -0.5853   0.01795   0.01295  -0.1054  0.9779  0.0226  -6.2879   0.0000   0.0000   0.0000   0.0568
  -9.500  -0.5764   0.01762   0.01261  -0.1052  0.9755  0.0228  -6.1968   0.0000   0.0000   0.0000   0.0544
  -9.400  -0.5645   0.01736   0.01234  -0.1055  0.9741  0.0231  -6.0891   0.0000   0.0000   0.0000   0.0500
  -9.300  -0.5520   0.01713   0.01210  -0.1060  0.9730  0.0234  -5.9783   0.0000   0.0000   0.0000   0.0449
  -9.200  -0.5392   0.01690   0.01186  -0.1065  0.9721  0.0237  -5.8677   0.0000   0.0000   0.0000   0.0394
  -9.100  -0.5262   0.01667   0.01160  -0.1070  0.9712  0.0240  -5.7586   0.0000   0.0000   0.0000   0.0335
  -9.000  -0.5131   0.01642   0.01132  -0.1075  0.9703  0.0244  -5.6519   0.0000   0.0000   0.0000   0.0272
  -8.900  -0.5001   0.01617   0.01102  -0.1080  0.9695  0.0247  -5.5476   0.0000   0.0000   0.0000   0.0207
  -8.800  -0.4871   0.01592   0.01072  -0.1085  0.9687  0.0251  -5.4445   0.0000   0.0000   0.0000   0.0138
  -8.700  -0.4738   0.01569   0.01043  -0.1090  0.9679  0.0253  -5.3468   0.0000   0.0000   0.0000   0.0065
  -8.600  -0.4634   0.01539   0.01008  -0.1090  0.9660  0.0256  -5.2662   0.0000   0.0000   0.0000   0.0013
  -8.500  -0.4545   0.01497   0.00966  -0.1087  0.9633  0.0260  -5.1920   0.0000   0.0000   0.0000  -0.0027
  -8.400  -0.4436   0.01471   0.00939  -0.1088  0.9613  0.0263  -5.1025   0.0000   0.0000   0.0000  -0.0088
  -8.300  -0.4318   0.01449   0.00917  -0.1090  0.9595  0.0267  -5.0086   0.0000   0.0000   0.0000  -0.0160
  -8.200  -0.4198   0.01429   0.00895  -0.1092  0.9580  0.0270  -4.9146   0.0000   0.0000   0.0000  -0.0238
  -8.100  -0.4078   0.01410   0.00874  -0.1094  0.9566  0.0274  -4.8224   0.0000   0.0000   0.0000  -0.0321
  -8.000  -0.3985   0.01393   0.00854  -0.1090  0.9534  0.0278  -4.7427   0.0000   0.0000   0.0000  -0.0374
  -7.900  -0.3883   0.01376   0.00834  -0.1088  0.9506  0.0282  -4.6598   0.0000   0.0000   0.0000  -0.0441
  -7.800  -0.3773   0.01359   0.00813  -0.1088  0.9483  0.0287  -4.5748   0.0000   0.0000   0.0000  -0.0522
  -7.700  -0.3660   0.01346   0.00795  -0.1088  0.9464  0.0290  -4.4883   0.0000   0.0000   0.0000  -0.0612
  -7.600  -0.3555   0.01311   0.00759  -0.1087  0.9447  0.0296  -4.4107   0.0000   0.0000   0.0000  -0.0700
  -7.500  -0.3460   0.01290   0.00738  -0.1085  0.9419  0.0300  -4.3312   0.0000   0.0000   0.0000  -0.0777
  -7.400  -0.3358   0.01275   0.00722  -0.1083  0.9392  0.0305  -4.2477   0.0000   0.0000   0.0000  -0.0869
  -7.300  -0.3251   0.01260   0.00707  -0.1082  0.9369  0.0310  -4.1635   0.0000   0.0000   0.0000  -0.0973
  -7.200  -0.3143   0.01246   0.00690  -0.1081  0.9348  0.0315  -4.0802   0.0000   0.0000   0.0000  -0.1087
  -7.100  -0.3032   0.01231   0.00673  -0.1081  0.9331  0.0321  -3.9976   0.0000   0.0000   0.0000  -0.1213
  -7.000  -0.2926   0.01218   0.00657  -0.1079  0.9306  0.0326  -3.9178   0.0000   0.0000   0.0000  -0.1340
  -6.900  -0.2821   0.01207   0.00642  -0.1078  0.9277  0.0330  -3.8389   0.0000   0.0000   0.0000  -0.1473
  -6.800  -0.2720   0.01182   0.00616  -0.1076  0.9250  0.0336  -3.7650   0.0000   0.0000   0.0000  -0.1611
  -6.700  -0.2616   0.01162   0.00595  -0.1075  0.9226  0.0343  -3.6868   0.0000   0.0000   0.0000  -0.1767
  -6.600  -0.2505   0.01149   0.00581  -0.1074  0.9206  0.0349  -3.6095   0.0000   0.0000   0.0000  -0.1950
  -6.500  -0.2399   0.01138   0.00570  -0.1073  0.9179  0.0356  -3.5343   0.0000   0.0000   0.0000  -0.2140
  -6.400  -0.2292   0.01128   0.00558  -0.1072  0.9148  0.0364  -3.4608   0.0000   0.0000   0.0000  -0.2345
  -6.300  -0.2184   0.01118   0.00545  -0.1071  0.9120  0.0371  -3.3878   0.0000   0.0000   0.0000  -0.2576
  -6.200  -0.2073   0.01110   0.00532  -0.1070  0.9096  0.0377  -3.3143   0.0000   0.0000   0.0000  -0.2841
  -6.100  -0.1967   0.01084   0.00506  -0.1069  0.9075  0.0386  -3.2466   0.0000   0.0000   0.0000  -0.3118
  -6.000  -0.1862   0.01071   0.00493  -0.1068  0.9042  0.0394  -3.1753   0.0000   0.0000   0.0000  -0.3424
  -5.900  -0.1755   0.01060   0.00482  -0.1067  0.9011  0.0402  -3.1031   0.0000   0.0000   0.0000  -0.3777
  -5.800  -0.1645   0.01051   0.00471  -0.1066  0.8982  0.0411  -3.0312   0.0000   0.0000   0.0000  -0.4185
  -5.700  -0.1534   0.01042   0.00459  -0.1066  0.8957  0.0421  -2.9595   0.0000   0.0000   0.0000  -0.4662
  -5.600  -0.1423   0.01036   0.00450  -0.1065  0.8927  0.0429  -2.8885   0.0000   0.0000   0.0000  -0.5209
  -5.500  -0.1319   0.01015   0.00430  -0.1064  0.8892  0.0442  -2.8228   0.0000   0.0000   0.0000  -0.5798
  -5.400  -0.1210   0.01004   0.00419  -0.1063  0.8861  0.0453  -2.7525   0.0000   0.0000   0.0000  -0.6533
  -5.300  -0.1099   0.00996   0.00409  -0.1062  0.8833  0.0465  -2.6824   0.0000   0.0000   0.0000  -0.7434
  -5.200  -0.0988   0.00989   0.00399  -0.1062  0.8804  0.0476  -2.6158   0.0000   0.0000   0.0000  -0.8535
  -5.100  -0.0878   0.00983   0.00391  -0.1061  0.8768  0.0486  -2.5521   0.0000   0.0000   0.0000  -0.9907
  -5.000  -0.0771   0.00965   0.00374  -0.1060  0.8735  0.0502  -2.4916   0.0000   0.0000   0.0000  -1.1603
  -4.900  -0.0661   0.00956   0.00364  -0.1060  0.8705  0.0517  -2.4277   0.0000   0.0000   0.0000  -1.3942
  -4.800  -0.0550   0.00949   0.00356  -0.1059  0.8672  0.0532  -2.3644   0.0000   0.0000   0.0000  -1.7236
  -4.700  -0.0439   0.00944   0.00348  -0.1059  0.8634  0.0547  -2.3019   0.0000   0.0000   0.0000  -2.2190
  -4.600  -0.0330   0.00932   0.00335  -0.1058  0.8599  0.0565  -2.2418   0.0000   0.0000   0.0000  -3.0300
  -4.500  -0.0220   0.00923   0.00326  -0.1057  0.8568  0.0584  -2.1802   0.0000   0.0000   0.0000  -4.6719
  -4.400  -0.0109   0.00916   0.00319  -0.1057  0.8530  0.0603  -2.1189   0.0000   0.0000   0.0000  -9.6640
  -4.300   0.0003   0.00911   0.00311  -0.1056  0.8492  0.0621  -2.0593   0.0000   0.0000   0.0000  425.7736
  -4.200   0.0112   0.00900   0.00300  -0.1056  0.8457  0.0645  -2.0043   0.0000   0.0000   0.0000   9.8618
  -4.100   0.0223   0.00893   0.00293  -0.1055  0.8423  0.0669  -1.9481   0.0000   0.0000   0.0000   5.0802
  -4.000   0.0334   0.00888   0.00286  -0.1055  0.8382  0.0693  -1.8923   0.0000   0.0000   0.0000   3.4682
  -3.900   0.0445   0.00881   0.00278  -0.1054  0.8343  0.0717  -1.8378   0.0000   0.0000   0.0000   2.6639
  -3.700   0.0666   0.00867   0.00264  -0.1053  0.8266  0.0778  -1.7288   0.0000   0.0000   0.0000   1.8586
  -3.600   0.0777   0.00862   0.00257  -0.1052  0.8224  0.0808  -1.6752   0.0000   0.0000   0.0000   1.6272
  -3.500   0.0887   0.00855   0.00250  -0.1052  0.8186  0.0845  -1.6222   0.0000   0.0000   0.0000   1.4550
  -3.400   0.0998   0.00850   0.00245  -0.1052  0.8144  0.0881  -1.5723   0.0000   0.0000   0.0000   1.3196
  -3.300   0.1109   0.00844   0.00239  -0.1051  0.8100  0.0920  -1.5234   0.0000   0.0000   0.0000   1.2118
  -3.200   0.1219   0.00838   0.00233  -0.1050  0.8061  0.0963  -1.4745   0.0000   0.0000   0.0000   1.1238
  -3.100   0.1331   0.00835   0.00229  -0.1050  0.8018  0.1003  -1.4257   0.0000   0.0000   0.0000   1.0497
  -3.000   0.1441   0.00828   0.00223  -0.1050  0.7972  0.1056  -1.3779   0.0000   0.0000   0.0000   0.9879
  -2.900   0.1552   0.00825   0.00218  -0.1049  0.7930  0.1104  -1.3301   0.0000   0.0000   0.0000   0.9344
  -2.800   0.1663   0.00819   0.00214  -0.1049  0.7884  0.1160  -1.2829   0.0000   0.0000   0.0000   0.8883
  -2.700   0.1773   0.00815   0.00210  -0.1048  0.7837  0.1217  -1.2371   0.0000   0.0000   0.0000   0.8478
  -2.600   0.1883   0.00811   0.00205  -0.1048  0.7794  0.1278  -1.1937   0.0000   0.0000   0.0000   0.8122
  -2.500   0.1995   0.00807   0.00202  -0.1047  0.7746  0.1341  -1.1503   0.0000   0.0000   0.0000   0.7804
  -2.400   0.2105   0.00802   0.00198  -0.1047  0.7698  0.1410  -1.1075   0.0000   0.0000   0.0000   0.7521
  -2.200   0.2326   0.00795   0.00192  -0.1046  0.7602  0.1556  -1.0247   0.0000   0.0000   0.0000   0.7034
  -2.100   0.2436   0.00792   0.00189  -0.1045  0.7553  0.1632  -0.9856   0.0000   0.0000   0.0000   0.6825
  -2.000   0.2546   0.00789   0.00186  -0.1045  0.7504  0.1716  -0.9468   0.0000   0.0000   0.0000   0.6633
  -1.900   0.2656   0.00785   0.00184  -0.1044  0.7453  0.1801  -0.9084   0.0000   0.0000   0.0000   0.6457
  -1.800   0.2766   0.00783   0.00182  -0.1044  0.7406  0.1888  -0.8704   0.0000   0.0000   0.0000   0.6296
  -1.700   0.2877   0.00780   0.00180  -0.1043  0.7353  0.1984  -0.8342   0.0000   0.0000   0.0000   0.6146
  -1.600   0.2986   0.00777   0.00178  -0.1043  0.7301  0.2082  -0.7992   0.0000   0.0000   0.0000   0.6008
  -1.500   0.3096   0.00774   0.00176  -0.1042  0.7250  0.2182  -0.7644   0.0000   0.0000   0.0000   0.5880
  -1.400   0.3206   0.00771   0.00175  -0.1042  0.7196  0.2286  -0.7300   0.0000   0.0000   0.0000   0.5761
  -1.200   0.3426   0.00767   0.00172  -0.1041  0.7092  0.2515  -0.6752   0.0000   0.0000   0.0000   0.5545
  -1.100   0.3534   0.00765   0.00171  -0.1040  0.7039  0.2637  -0.6830   0.0000   0.0000   0.0000   0.5447
  -1.000   0.3644   0.00762   0.00171  -0.1040  0.6986  0.2768  -0.6909   0.0000   0.0000   0.0000   0.5355
  -0.900   0.3753   0.00759   0.00170  -0.1039  0.6930  0.2903  -0.6990   0.0000   0.0000   0.0000   0.5269
  -0.800   0.3862   0.00757   0.00169  -0.1039  0.6879  0.3048  -0.7070   0.0000   0.0000   0.0000   0.5188
  -0.600   0.4079   0.00751   0.00169  -0.1037  0.6770  0.3375  -0.7231   0.0000   0.0000   0.0000   0.5038
  -0.500   0.4188   0.00747   0.00168  -0.1037  0.6715  0.3571  -0.7312   0.0000   0.0000   0.0000   0.4969
  -0.400   0.4295   0.00742   0.00168  -0.1036  0.6660  0.3802  -0.7395   0.0000   0.0000   0.0000   0.4905
  -0.300   0.4401   0.00734   0.00168  -0.1036  0.6608  0.4113  -0.7477   0.0000   0.0000   0.0000   0.4843
  -0.200   0.4506   0.00722   0.00170  -0.1035  0.6552  0.4599  -0.7559   0.0000   0.0000   0.0000   0.4786
  -0.100   0.4607   0.00710   0.00172  -0.1034  0.6502  0.5203  -0.7639   0.0000   0.0000   0.0000   0.4731
   0.000   0.4710   0.00696   0.00174  -0.1032  0.6447  0.5787  -0.7721   0.0000   0.0000   0.0000   0.4677
   0.100   0.4810   0.00686   0.00177  -0.1030  0.6394  0.6323  -0.7803   0.0000   0.0000   0.0000   0.4626
   0.200   0.4909   0.00674   0.00179  -0.1028  0.6342  0.6854  -0.7885   0.0000   0.0000   0.0000   0.4576
   0.300   0.5004   0.00663   0.00183  -0.1024  0.6289  0.7383  -0.7966   0.0000   0.0000   0.0000   0.4527
   0.400   0.5093   0.00653   0.00186  -0.1018  0.6242  0.7911  -0.8043   0.0000   0.0000   0.0000   0.4479
   0.500   0.5175   0.00641   0.00190  -0.1010  0.6191  0.8466  -0.8118   0.0000   0.0000   0.0000   0.4431
   0.600   0.5248   0.00633   0.00194  -0.0999  0.6141  0.9015  -0.8190   0.0000   0.0000   0.0000   0.4381
   0.700   0.5376   0.00631   0.00196  -0.1000  0.6092  0.9494  -0.8293   0.0000   0.0000   0.0000   0.4337
   0.800   0.5569   0.00634   0.00196  -0.1017  0.6036  0.9789  -0.8431   0.0000   0.0000   0.0000   0.4302
   0.900   0.5753   0.00639   0.00197  -0.1033  0.5985  0.9950  -0.8564   0.0000   0.0000   0.0000   0.4271
   1.000   0.5904   0.00642   0.00198  -0.1042  0.5932  1.0000  -0.8682   0.0000   0.0000   0.0000   0.4238
   1.100   0.6006   0.00647   0.00199  -0.1040  0.5884  1.0000  -0.8773   0.0000   0.0000   0.0000   0.4204
   1.200   0.6109   0.00652   0.00201  -0.1038  0.5840  1.0000  -0.8865   0.0000   0.0000   0.0000   0.4170
   1.300   0.6214   0.00656   0.00202  -0.1037  0.5793  1.0000  -0.8958   0.0000   0.0000   0.0000   0.4138
   1.400   0.6317   0.00662   0.00204  -0.1035  0.5748  1.0000  -0.9053   0.0000   0.0000   0.0000   0.4107
   1.500   0.6422   0.00667   0.00206  -0.1033  0.5706  1.0000  -0.9149   0.0000   0.0000   0.0000   0.4077
   1.600   0.6528   0.00671   0.00208  -0.1032  0.5661  1.0000  -0.9246   0.0000   0.0000   0.0000   0.4048
   1.700   0.6632   0.00677   0.00210  -0.1030  0.5620  1.0000  -0.9343   0.0000   0.0000   0.0000   0.4019
   1.800   0.6738   0.00682   0.00212  -0.1029  0.5581  1.0000  -0.9444   0.0000   0.0000   0.0000   0.3992
   1.900   0.6844   0.00686   0.00215  -0.1028  0.5539  1.0000  -0.9546   0.0000   0.0000   0.0000   0.3965
   2.000   0.6949   0.00692   0.00218  -0.1026  0.5499  1.0000  -0.9647   0.0000   0.0000   0.0000   0.3940
   2.100   0.7054   0.00698   0.00220  -0.1025  0.5463  1.0000  -0.9749   0.0000   0.0000   0.0000   0.3915
   2.200   0.7162   0.00701   0.00223  -0.1024  0.5425  1.0000  -0.9857   0.0000   0.0000   0.0000   0.3890
   2.300   0.7269   0.00707   0.00226  -0.1023  0.5386  1.0000  -0.9963   0.0000   0.0000   0.0000   0.3867
   2.400   0.7373   0.00713   0.00229  -0.1022  0.5352  1.0000  -1.0069   0.0000   0.0000   0.0000   0.3844
   2.500   0.7481   0.00718   0.00232  -0.1021  0.5317  1.0000  -1.0180   0.0000   0.0000   0.0000   0.3822
   2.600   0.7589   0.00722   0.00235  -0.1020  0.5281  1.0000  -1.0293   0.0000   0.0000   0.0000   0.3800
   2.700   0.7695   0.00728   0.00239  -0.1019  0.5246  1.0000  -1.0404   0.0000   0.0000   0.0000   0.3779
   2.900   0.7909   0.00738   0.00246  -0.1017  0.5182  1.0000  -1.0637   0.0000   0.0000   0.0000   0.3739
   3.000   0.8016   0.00743   0.00250  -0.1016  0.5148  1.0000  -1.0755   0.0000   0.0000   0.0000   0.3720
   3.100   0.8122   0.00749   0.00254  -0.1015  0.5115  1.0000  -1.0877   0.0000   0.0000   0.0000   0.3701
   3.300   0.8336   0.00760   0.00262  -0.1013  0.5054  1.0000  -1.1126   0.0000   0.0000   0.0000   0.3664
   3.400   0.8444   0.00765   0.00265  -0.1012  0.5022  1.0000  -1.1255   0.0000   0.0000   0.0000   0.3647
   3.500   0.8551   0.00771   0.00270  -0.1011  0.4990  1.0000  -1.1386   0.0000   0.0000   0.0000   0.3630
   3.600   0.8655   0.00778   0.00274  -0.1010  0.4962  1.0000  -1.1519   0.0000   0.0000   0.0000   0.3613
   3.700   0.8764   0.00782   0.00279  -0.1009  0.4931  1.0000  -1.1659   0.0000   0.0000   0.0000   0.3597
   3.800   0.8872   0.00787   0.00283  -0.1009  0.4900  1.0000  -1.1802   0.0000   0.0000   0.0000   0.3581
   3.900   0.8978   0.00793   0.00288  -0.1008  0.4868  1.0000  -1.1950   0.0000   0.0000   0.0000   0.3565
   4.000   0.9083   0.00800   0.00293  -0.1006  0.4839  1.0000  -1.2103   0.0000   0.0000   0.0000   0.3550
   4.100   0.9190   0.00805   0.00297  -0.1006  0.4810  1.0000  -1.2266   0.0000   0.0000   0.0000   0.3535
   4.200   0.9299   0.00810   0.00302  -0.1005  0.4777  1.0000  -1.2444   0.0000   0.0000   0.0000   0.3520
   4.300   0.9405   0.00816   0.00307  -0.1004  0.4745  1.0000  -1.2646   0.0000   0.0000   0.0000   0.3506
   4.400   0.9509   0.00823   0.00312  -0.1003  0.4714  1.0000  -1.2883   0.0000   0.0000   0.0000   0.3492
   4.500   0.9615   0.00829   0.00318  -0.1002  0.4683  1.0000  -1.3152   0.0000   0.0000   0.0000   0.3478
   4.600   0.9723   0.00834   0.00323  -0.1001  0.4648  1.0000  -1.3440   0.0000   0.0000   0.0000   0.3465
   4.700   0.9829   0.00840   0.00328  -0.1000  0.4613  1.0000  -1.3746   0.0000   0.0000   0.0000   0.3451
   4.800   0.9931   0.00848   0.00334  -0.0998  0.4579  1.0000  -1.4060   0.0000   0.0000   0.0000   0.3438
   4.900   1.0038   0.00853   0.00339  -0.0998  0.4543  1.0000  -1.4395   0.0000   0.0000   0.0000   0.3425
   5.000   1.0144   0.00858   0.00344  -0.0997  0.4502  1.0000  -1.4742   0.0000   0.0000   0.0000   0.3413
   5.100   1.0246   0.00866   0.00350  -0.0995  0.4462  1.0000  -1.5098   0.0000   0.0000   0.0000   0.3400
   5.200   1.0351   0.00873   0.00356  -0.0994  0.4422  1.0000  -1.5473   0.0000   0.0000   0.0000   0.3388
   5.300   1.0457   0.00878   0.00361  -0.0993  0.4378  1.0000  -1.5853   0.0000   0.0000   0.0000   0.3376
   5.400   1.0558   0.00887   0.00367  -0.0991  0.4334  1.0000  -1.6237   0.0000   0.0000   0.0000   0.3364
   5.500   1.0662   0.00893   0.00374  -0.0990  0.4292  1.0000  -1.6640   0.0000   0.0000   0.0000   0.3353
   5.600   1.0767   0.00899   0.00380  -0.0989  0.4246  1.0000  -1.7057   0.0000   0.0000   0.0000   0.3342
   5.700   1.0868   0.00908   0.00386  -0.0987  0.4202  1.0000  -1.7481   0.0000   0.0000   0.0000   0.3330
   5.800   1.0972   0.00914   0.00393  -0.0986  0.4159  1.0000  -1.7915   0.0000   0.0000   0.0000   0.3319
   5.900   1.1076   0.00921   0.00399  -0.0984  0.4110  1.0000  -1.8363   0.0000   0.0000   0.0000   0.3308
   6.000   1.1175   0.00931   0.00406  -0.0982  0.4064  1.0000  -1.8816   0.0000   0.0000   0.0000   0.3297
   6.100   1.1280   0.00936   0.00412  -0.0981  0.4015  1.0000  -1.9286   0.0000   0.0000   0.0000   0.3287
   6.200   1.1381   0.00945   0.00420  -0.0980  0.3963  1.0000  -1.9750   0.0000   0.0000   0.0000   0.3277
   6.300   1.1482   0.00953   0.00427  -0.0978  0.3912  1.0000  -2.0216   0.0000   0.0000   0.0000   0.3266
   6.400   1.1583   0.00961   0.00434  -0.0976  0.3854  1.0000  -2.0713   0.0000   0.0000   0.0000   0.3256
   6.500   1.1681   0.00971   0.00442  -0.0974  0.3798  1.0000  -2.1205   0.0000   0.0000   0.0000   0.3246
   6.600   1.1781   0.00980   0.00450  -0.0972  0.3733  1.0000  -2.1707   0.0000   0.0000   0.0000   0.3236
   6.700   1.1877   0.00991   0.00459  -0.0970  0.3670  1.0000  -2.2215   0.0000   0.0000   0.0000   0.3226
   6.800   1.1975   0.01001   0.00467  -0.0967  0.3599  1.0000  -2.2745   0.0000   0.0000   0.0000   0.3216
   6.900   1.2070   0.01013   0.00477  -0.0965  0.3530  1.0000  -2.3272   0.0000   0.0000   0.0000   0.3206
   7.000   1.2163   0.01027   0.00487  -0.0962  0.3453  1.0000  -2.3797   0.0000   0.0000   0.0000   0.3196
   7.100   1.2258   0.01039   0.00497  -0.0959  0.3374  1.0000  -2.4331   0.0000   0.0000   0.0000   0.3187
   7.200   1.2348   0.01054   0.00508  -0.0956  0.3292  1.0000  -2.4862   0.0000   0.0000   0.0000   0.3177
   7.300   1.2436   0.01070   0.00521  -0.0952  0.3201  1.0000  -2.5413   0.0000   0.0000   0.0000   0.3167
   7.400   1.2526   0.01085   0.00533  -0.0949  0.3106  1.0000  -2.5973   0.0000   0.0000   0.0000   0.3158
   7.500   1.2613   0.01103   0.00546  -0.0945  0.3010  1.0000  -2.6529   0.0000   0.0000   0.0000   0.3148
   7.600   1.2698   0.01121   0.00560  -0.0941  0.2909  1.0000  -2.7081   0.0000   0.0000   0.0000   0.3138
   7.700   1.2780   0.01142   0.00575  -0.0936  0.2801  1.0000  -2.7630   0.0000   0.0000   0.0000   0.3129
   7.800   1.2860   0.01164   0.00591  -0.0931  0.2689  1.0000  -2.8176   0.0000   0.0000   0.0000   0.3119
   7.900   1.2938   0.01186   0.00608  -0.0926  0.2574  1.0000  -2.8721   0.0000   0.0000   0.0000   0.3109
   8.000   1.3014   0.01210   0.00626  -0.0921  0.2454  1.0000  -2.9263   0.0000   0.0000   0.0000   0.3100
   8.100   1.3088   0.01236   0.00645  -0.0915  0.2331  1.0000  -2.9828   0.0000   0.0000   0.0000   0.3090
   8.200   1.3159   0.01262   0.00666  -0.0909  0.2205  1.0000  -3.0391   0.0000   0.0000   0.0000   0.3080
   8.300   1.3228   0.01290   0.00686  -0.0903  0.2078  1.0000  -3.0950   0.0000   0.0000   0.0000   0.3070
   8.400   1.3295   0.01319   0.00708  -0.0896  0.1951  1.0000  -3.1504   0.0000   0.0000   0.0000   0.3060
   8.500   1.3360   0.01349   0.00731  -0.0889  0.1825  1.0000  -3.2054   0.0000   0.0000   0.0000   0.3050
   8.600   1.3422   0.01380   0.00755  -0.0881  0.1701  1.0000  -3.2600   0.0000   0.0000   0.0000   0.3040
   8.700   1.3482   0.01412   0.00780  -0.0873  0.1582  1.0000  -3.3142   0.0000   0.0000   0.0000   0.3030
   8.800   1.3541   0.01443   0.00805  -0.0865  0.1468  1.0000  -3.3681   0.0000   0.0000   0.0000   0.3020
   8.900   1.3598   0.01475   0.00830  -0.0857  0.1361  1.0000  -3.4222   0.0000   0.0000   0.0000   0.3010
   9.000   1.3653   0.01506   0.00856  -0.0848  0.1264  1.0000  -3.4784   0.0000   0.0000   0.0000   0.2999
   9.100   1.3702   0.01536   0.00881  -0.0838  0.1176  1.0000  -3.5328   0.0000   0.0000   0.0000   0.2988
   9.200   1.3748   0.01567   0.00907  -0.0828  0.1094  1.0000  -3.5866   0.0000   0.0000   0.0000   0.2977
   9.300   1.3796   0.01598   0.00933  -0.0818  0.1017  1.0000  -3.6411   0.0000   0.0000   0.0000   0.2966
   9.400   1.3848   0.01627   0.00959  -0.0809  0.0949  1.0000  -3.6974   0.0000   0.0000   0.0000   0.2956
   9.500   1.3897   0.01658   0.00986  -0.0799  0.0888  1.0000  -3.7528   0.0000   0.0000   0.0000   0.2946
   9.600   1.3946   0.01689   0.01014  -0.0790  0.0830  1.0000  -3.8085   0.0000   0.0000   0.0000   0.2935
   9.700   1.4000   0.01717   0.01041  -0.0781  0.0781  1.0000  -3.8659   0.0000   0.0000   0.0000   0.2925
   9.800   1.4046   0.01750   0.01070  -0.0771  0.0734  1.0000  -3.9212   0.0000   0.0000   0.0000   0.2915
   9.900   1.4101   0.01778   0.01097  -0.0763  0.0694  1.0000  -3.9798   0.0000   0.0000   0.0000   0.2906
  10.000   1.4148   0.01811   0.01128  -0.0754  0.0655  1.0000  -4.0356   0.0000   0.0000   0.0000   0.2896
  10.100   1.4202   0.01840   0.01156  -0.0746  0.0622  1.0000  -4.0951   0.0000   0.0000   0.0000   0.2887
  10.200   1.4252   0.01871   0.01187  -0.0737  0.0591  1.0000  -4.1556   0.0000   0.0000   0.0000   0.2877
  10.300   1.4297   0.01906   0.01220  -0.0728  0.0563  1.0000  -4.2142   0.0000   0.0000   0.0000   0.2868
  10.400   1.4354   0.01934   0.01248  -0.0721  0.0540  1.0000  -4.2779   0.0000   0.0000   0.0000   0.2859
  10.500   1.4401   0.01967   0.01282  -0.0713  0.0517  1.0000  -4.3381   0.0000   0.0000   0.0000   0.2850
  10.600   1.4442   0.02006   0.01319  -0.0703  0.0496  1.0000  -4.3956   0.0000   0.0000   0.0000   0.2840
  10.700   1.4500   0.02033   0.01348  -0.0697  0.0479  1.0000  -4.4605   0.0000   0.0000   0.0000   0.2832
  10.800   1.4550   0.02067   0.01382  -0.0689  0.0462  1.0000  -4.5223   0.0000   0.0000   0.0000   0.2824
  10.900   1.4590   0.02106   0.01421  -0.0680  0.0446  1.0000  -4.5809   0.0000   0.0000   0.0000   0.2815
  11.000   1.4632   0.02145   0.01460  -0.0672  0.0431  1.0000  -4.6394   0.0000   0.0000   0.0000   0.2806
  11.100   1.4687   0.02176   0.01493  -0.0665  0.0418  1.0000  -4.7043   0.0000   0.0000   0.0000   0.2798
  11.200   1.4734   0.02212   0.01531  -0.0658  0.0405  1.0000  -4.7662   0.0000   0.0000   0.0000   0.2790
  11.300   1.4775   0.02253   0.01572  -0.0650  0.0394  1.0000  -4.8256   0.0000   0.0000   0.0000   0.2781
  11.400   1.4805   0.02302   0.01621  -0.0641  0.0382  1.0000  -4.8802   0.0000   0.0000   0.0000   0.2773
  11.500   1.4853   0.02340   0.01660  -0.0634  0.0373  1.0000  -4.9423   0.0000   0.0000   0.0000   0.2765
  11.600   1.4902   0.02376   0.01700  -0.0627  0.0364  1.0000  -5.0060   0.0000   0.0000   0.0000   0.2757
  11.700   1.4946   0.02417   0.01742  -0.0620  0.0355  1.0000  -5.0675   0.0000   0.0000   0.0000   0.2750
  11.800   1.4984   0.02462   0.01789  -0.0613  0.0346  1.0000  -5.1269   0.0000   0.0000   0.0000   0.2742
  11.900   1.5015   0.02514   0.01841  -0.0605  0.0338  1.0000  -5.1829   0.0000   0.0000   0.0000   0.2734
  12.000   1.5030   0.02578   0.01906  -0.0596  0.0330  1.0000  -5.2334   0.0000   0.0000   0.0000   0.2726
  12.100   1.5080   0.02617   0.01948  -0.0590  0.0324  1.0000  -5.3016   0.0000   0.0000   0.0000   0.2719
  12.200   1.5124   0.02660   0.01994  -0.0584  0.0317  1.0000  -5.3677   0.0000   0.0000   0.0000   0.2712
  12.300   1.5165   0.02707   0.02043  -0.0578  0.0311  1.0000  -5.4324   0.0000   0.0000   0.0000   0.2705
  12.400   1.5201   0.02759   0.02096  -0.0572  0.0304  1.0000  -5.4951   0.0000   0.0000   0.0000   0.2698
  12.500   1.5230   0.02816   0.02154  -0.0565  0.0298  1.0000  -5.5550   0.0000   0.0000   0.0000   0.2691
  12.600   1.5250   0.02881   0.02221  -0.0558  0.0293  1.0000  -5.6103   0.0000   0.0000   0.0000   0.2684
  12.700   1.5253   0.02961   0.02302  -0.0549  0.0287  1.0000  -5.6563   0.0000   0.0000   0.0000   0.2676
  12.800   1.5289   0.03015   0.02360  -0.0544  0.0283  1.0000  -5.7188   0.0000   0.0000   0.0000   0.2670
  12.900   1.5327   0.03069   0.02417  -0.0539  0.0278  1.0000  -5.7828   0.0000   0.0000   0.0000   0.2664
  13.000   1.5360   0.03128   0.02479  -0.0533  0.0274  1.0000  -5.8444   0.0000   0.0000   0.0000   0.2658
  13.100   1.5391   0.03189   0.02543  -0.0528  0.0269  1.0000  -5.9054   0.0000   0.0000   0.0000   0.2652
  13.200   1.5418   0.03254   0.02611  -0.0523  0.0265  1.0000  -5.9653   0.0000   0.0000   0.0000   0.2646
  13.300   1.5441   0.03324   0.02682  -0.0518  0.0261  1.0000  -6.0229   0.0000   0.0000   0.0000   0.2640
  13.400   1.5457   0.03400   0.02761  -0.0512  0.0257  1.0000  -6.0773   0.0000   0.0000   0.0000   0.2634
  13.500   1.5464   0.03486   0.02848  -0.0507  0.0254  1.0000  -6.1267   0.0000   0.0000   0.0000   0.2628
  13.600   1.5457   0.03586   0.02951  -0.0500  0.0250  1.0000  -6.1678   0.0000   0.0000   0.0000   0.2622
  13.700   1.5455   0.03683   0.03051  -0.0495  0.0247  1.0000  -6.2112   0.0000   0.0000   0.0000   0.2617
  13.800   1.5486   0.03751   0.03123  -0.0491  0.0244  1.0000  -6.2728   0.0000   0.0000   0.0000   0.2612
  13.900   1.5512   0.03824   0.03200  -0.0488  0.0240  1.0000  -6.3318   0.0000   0.0000   0.0000   0.2607
  14.000   1.5533   0.03903   0.03282  -0.0484  0.0237  1.0000  -6.3886   0.0000   0.0000   0.0000   0.2602
  14.100   1.5551   0.03984   0.03367  -0.0480  0.0234  1.0000  -6.4442   0.0000   0.0000   0.0000   0.2597
  14.200   1.5567   0.04070   0.03455  -0.0477  0.0231  1.0000  -6.4988   0.0000   0.0000   0.0000   0.2592
  14.300   1.5581   0.04157   0.03546  -0.0474  0.0228  1.0000  -6.5528   0.0000   0.0000   0.0000   0.2588
  14.400   1.5592   0.04251   0.03642  -0.0471  0.0225  1.0000  -6.6050   0.0000   0.0000   0.0000   0.2583
  14.500   1.5596   0.04352   0.03745  -0.0468  0.0223  1.0000  -6.6536   0.0000   0.0000   0.0000   0.2579
  14.600   1.5594   0.04461   0.03857  -0.0465  0.0220  1.0000  -6.6982   0.0000   0.0000   0.0000   0.2575
  14.700   1.5582   0.04583   0.03982  -0.0462  0.0218  1.0000  -6.7367   0.0000   0.0000   0.0000   0.2572
  14.800   1.5557   0.04720   0.04121  -0.0459  0.0216  1.0000  -6.7689   0.0000   0.0000   0.0000   0.2568
  15.000   1.5535   0.04969   0.04378  -0.0455  0.0212  1.0000  -6.8495   0.0000   0.0000   0.0000   0.2561


