xflr5 v6.61

 Calculated polar for: NACA 0012

 1 1 Reynolds number fixed          Mach number fixed         

 xtrf =   1.000 (top)        1.000 (bottom)
 Mach =   0.000     Re =     0.800 e 6     Ncrit =   9.000

  alpha     CL        CD       CDp       Cm    Top Xtr Bot Xtr   Cpmin    Chinge    XCp    
 ------- -------- --------- --------- -------- ------- ------- -------- --------- ---------
 -15.000  -1.3145   0.03827   0.03381  -0.0325  1.0000  0.0160  -9.0544   0.0000   0.0000   0.0000   0.2063
 -14.900  -1.3140   0.03726   0.03277  -0.0325  1.0000  0.0161  -9.0075   0.0000   0.0000   0.0000   0.2064
 -14.800  -1.3132   0.03629   0.03175  -0.0325  1.0000  0.0162  -8.9590   0.0000   0.0000   0.0000   0.2066
 -14.700  -1.3121   0.03538   0.03080  -0.0325  1.0000  0.0163  -8.9077   0.0000   0.0000   0.0000   0.2068
 -14.600  -1.3108   0.03451   0.02989  -0.0324  1.0000  0.0164  -8.8549   0.0000   0.0000   0.0000   0.2070
 -14.500  -1.3094   0.03369   0.02903  -0.0323  1.0000  0.0165  -8.8004   0.0000   0.0000   0.0000   0.2073
 -14.400  -1.3077   0.03291   0.02821  -0.0320  1.0000  0.0166  -8.7441   0.0000   0.0000   0.0000   0.2077
 -14.300  -1.3058   0.03218   0.02743  -0.0318  1.0000  0.0167  -8.6866   0.0000   0.0000   0.0000   0.2080
 -14.200  -1.3037   0.03149   0.02670  -0.0314  1.0000  0.0168  -8.6272   0.0000   0.0000   0.0000   0.2085
 -14.100  -1.3014   0.03084   0.02600  -0.0311  1.0000  0.0169  -8.5662   0.0000   0.0000   0.0000   0.2089
 -14.000  -1.2988   0.03022   0.02534  -0.0307  1.0000  0.0170  -8.5028   0.0000   0.0000   0.0000   0.2093
 -13.900  -1.2959   0.02964   0.02472  -0.0302  1.0000  0.0171  -8.4374   0.0000   0.0000   0.0000   0.2098
 -13.800  -1.2928   0.02910   0.02414  -0.0298  1.0000  0.0172  -8.3708   0.0000   0.0000   0.0000   0.2103
 -13.700  -1.2894   0.02859   0.02359  -0.0293  1.0000  0.0173  -8.3020   0.0000   0.0000   0.0000   0.2108
 -13.600  -1.2859   0.02811   0.02308  -0.0287  1.0000  0.0174  -8.2320   0.0000   0.0000   0.0000   0.2113
 -13.500  -1.2820   0.02766   0.02259  -0.0282  1.0000  0.0175  -8.1599   0.0000   0.0000   0.0000   0.2119
 -13.400  -1.2778   0.02724   0.02214  -0.0276  1.0000  0.0176  -8.0858   0.0000   0.0000   0.0000   0.2124
 -13.300  -1.2735   0.02685   0.02171  -0.0270  1.0000  0.0177  -8.0105   0.0000   0.0000   0.0000   0.2130
 -13.200  -1.2689   0.02648   0.02131  -0.0265  1.0000  0.0178  -7.9334   0.0000   0.0000   0.0000   0.2135
 -13.100  -1.2641   0.02613   0.02094  -0.0259  1.0000  0.0178  -7.8551   0.0000   0.0000   0.0000   0.2141
 -13.000  -1.2591   0.02581   0.02058  -0.0253  1.0000  0.0179  -7.7760   0.0000   0.0000   0.0000   0.2146
 -12.900  -1.2555   0.02538   0.02012  -0.0245  1.0000  0.0180  -7.7079   0.0000   0.0000   0.0000   0.2154
 -12.800  -1.2591   0.02446   0.01912  -0.0228  1.0000  0.0182  -7.6944   0.0000   0.0000   0.0000   0.2169
 -12.700  -1.2605   0.02374   0.01834  -0.0213  1.0000  0.0185  -7.6631   0.0000   0.0000   0.0000   0.2183
 -12.600  -1.2600   0.02316   0.01771  -0.0200  1.0000  0.0187  -7.6176   0.0000   0.0000   0.0000   0.2195
 -12.500  -1.2576   0.02266   0.01719  -0.0189  1.0000  0.0190  -7.5593   0.0000   0.0000   0.0000   0.2205
 -12.400  -1.2532   0.02223   0.01672  -0.0181  1.0000  0.0193  -7.4887   0.0000   0.0000   0.0000   0.2212
 -12.300  -1.2479   0.02185   0.01632  -0.0174  1.0000  0.0195  -7.4111   0.0000   0.0000   0.0000   0.2219
 -12.200  -1.2418   0.02152   0.01598  -0.0168  1.0000  0.0198  -7.3282   0.0000   0.0000   0.0000   0.2224
 -12.100  -1.2352   0.02123   0.01567  -0.0162  1.0000  0.0200  -7.2413   0.0000   0.0000   0.0000   0.2230
 -12.000  -1.2281   0.02097   0.01540  -0.0158  1.0000  0.0203  -7.1516   0.0000   0.0000   0.0000   0.2234
 -11.900  -1.2206   0.02073   0.01515  -0.0153  1.0000  0.0205  -7.0597   0.0000   0.0000   0.0000   0.2239
 -11.800  -1.2129   0.02050   0.01490  -0.0149  1.0000  0.0208  -6.9672   0.0000   0.0000   0.0000   0.2243
 -11.700  -1.2052   0.02028   0.01465  -0.0145  1.0000  0.0211  -6.8749   0.0000   0.0000   0.0000   0.2247
 -11.600  -1.1973   0.02006   0.01442  -0.0141  1.0000  0.0214  -6.7831   0.0000   0.0000   0.0000   0.2251
 -11.500  -1.1894   0.01984   0.01418  -0.0137  1.0000  0.0217  -6.6919   0.0000   0.0000   0.0000   0.2255
 -11.400  -1.1815   0.01961   0.01394  -0.0133  1.0000  0.0220  -6.6013   0.0000   0.0000   0.0000   0.2259
 -11.300  -1.1735   0.01939   0.01369  -0.0129  1.0000  0.0222  -6.5114   0.0000   0.0000   0.0000   0.2263
 -11.200  -1.1654   0.01917   0.01345  -0.0124  1.0000  0.0225  -6.4220   0.0000   0.0000   0.0000   0.2267
 -11.100  -1.1573   0.01895   0.01321  -0.0120  1.0000  0.0228  -6.3330   0.0000   0.0000   0.0000   0.2272
 -11.000  -1.1491   0.01874   0.01298  -0.0117  1.0000  0.0230  -6.2436   0.0000   0.0000   0.0000   0.2276
 -10.900  -1.1406   0.01855   0.01276  -0.0113  1.0000  0.0232  -6.1535   0.0000   0.0000   0.0000   0.2279
 -10.800  -1.1320   0.01836   0.01256  -0.0109  1.0000  0.0234  -6.0628   0.0000   0.0000   0.0000   0.2283
 -10.700  -1.1233   0.01820   0.01237  -0.0106  1.0000  0.0236  -5.9714   0.0000   0.0000   0.0000   0.2287
 -10.600  -1.1144   0.01804   0.01219  -0.0103  1.0000  0.0237  -5.8795   0.0000   0.0000   0.0000   0.2290
 -10.500  -1.1068   0.01776   0.01188  -0.0098  1.0000  0.0240  -5.7986   0.0000   0.0000   0.0000   0.2295
 -10.400  -1.1023   0.01719   0.01126  -0.0088  1.0000  0.0247  -5.7415   0.0000   0.0000   0.0000   0.2305
 -10.300  -1.0958   0.01680   0.01085  -0.0082  1.0000  0.0253  -5.6695   0.0000   0.0000   0.0000   0.2312
 -10.200  -1.0882   0.01651   0.01055  -0.0076  1.0000  0.0259  -5.5894   0.0000   0.0000   0.0000   0.2317
 -10.100  -1.0801   0.01628   0.01029  -0.0072  1.0000  0.0264  -5.5052   0.0000   0.0000   0.0000   0.2322
 -10.000  -1.0717   0.01607   0.01009  -0.0068  1.0000  0.0269  -5.4190   0.0000   0.0000   0.0000   0.2327
  -9.900  -1.0632   0.01588   0.00989  -0.0064  1.0000  0.0273  -5.3321   0.0000   0.0000   0.0000   0.2331
  -9.800  -1.0545   0.01571   0.00971  -0.0060  1.0000  0.0278  -5.2451   0.0000   0.0000   0.0000   0.2336
  -9.700  -1.0457   0.01555   0.00954  -0.0056  1.0000  0.0283  -5.1648   0.0000   0.0000   0.0000   0.2340
  -9.600  -1.0370   0.01538   0.00937  -0.0052  1.0000  0.0287  -5.0875   0.0000   0.0000   0.0000   0.2345
  -9.500  -1.0283   0.01523   0.00919  -0.0048  1.0000  0.0292  -5.0107   0.0000   0.0000   0.0000   0.2349
  -9.400  -1.0195   0.01508   0.00903  -0.0044  1.0000  0.0296  -4.9341   0.0000   0.0000   0.0000   0.2354
  -9.300  -1.0108   0.01494   0.00888  -0.0040  1.0000  0.0301  -4.8577   0.0000   0.0000   0.0000   0.2359
  -9.200  -1.0019   0.01481   0.00873  -0.0036  1.0000  0.0304  -4.7811   0.0000   0.0000   0.0000   0.2364
  -9.100  -0.9930   0.01469   0.00860  -0.0032  1.0000  0.0307  -4.7041   0.0000   0.0000   0.0000   0.2369
  -9.000  -0.9839   0.01459   0.00849  -0.0029  1.0000  0.0310  -4.6264   0.0000   0.0000   0.0000   0.2373
  -8.900  -0.9767   0.01433   0.00820  -0.0022  1.0000  0.0318  -4.5627   0.0000   0.0000   0.0000   0.2381
  -8.800  -0.9699   0.01401   0.00787  -0.0014  1.0000  0.0331  -4.5026   0.0000   0.0000   0.0000   0.2390
  -8.700  -0.9621   0.01380   0.00767  -0.0009  1.0000  0.0343  -4.4341   0.0000   0.0000   0.0000   0.2397
  -8.600  -0.9539   0.01363   0.00750  -0.0003  1.0000  0.0352  -4.3624   0.0000   0.0000   0.0000   0.2403
  -8.500  -0.9455   0.01348   0.00736   0.0001  1.0000  0.0361  -4.2898   0.0000   0.0000   0.0000   0.2410
  -8.400  -0.9370   0.01335   0.00722   0.0006  1.0000  0.0369  -4.2174   0.0000   0.0000   0.0000   0.2416
  -8.300  -0.9284   0.01323   0.00709   0.0011  1.0000  0.0377  -4.1453   0.0000   0.0000   0.0000   0.2422
  -8.200  -0.9198   0.01311   0.00696   0.0016  1.0000  0.0384  -4.0737   0.0000   0.0000   0.0000   0.2429
  -8.100  -0.9112   0.01300   0.00684   0.0020  1.0000  0.0391  -4.0022   0.0000   0.0000   0.0000   0.2435
  -8.000  -0.9025   0.01290   0.00674   0.0025  1.0000  0.0396  -3.9307   0.0000   0.0000   0.0000   0.2441
  -7.900  -0.8936   0.01281   0.00664   0.0029  1.0000  0.0400  -3.8590   0.0000   0.0000   0.0000   0.2448
  -7.800  -0.8856   0.01266   0.00647   0.0035  1.0000  0.0410  -3.7930   0.0000   0.0000   0.0000   0.2456
  -7.700  -0.8783   0.01241   0.00622   0.0042  1.0000  0.0431  -3.7331   0.0000   0.0000   0.0000   0.2465
  -7.600  -0.8704   0.01224   0.00606   0.0048  1.0000  0.0449  -3.6680   0.0000   0.0000   0.0000   0.2474
  -7.500  -0.8622   0.01209   0.00593   0.0054  1.0000  0.0464  -3.6012   0.0000   0.0000   0.0000   0.2481
  -7.400  -0.8539   0.01197   0.00581   0.0059  1.0000  0.0477  -3.5339   0.0000   0.0000   0.0000   0.2489
  -7.300  -0.8455   0.01186   0.00570   0.0064  1.0000  0.0490  -3.4666   0.0000   0.0000   0.0000   0.2497
  -7.200  -0.8369   0.01176   0.00559   0.0069  1.0000  0.0502  -3.3988   0.0000   0.0000   0.0000   0.2505
  -7.100  -0.8282   0.01169   0.00551   0.0074  1.0000  0.0511  -3.3309   0.0000   0.0000   0.0000   0.2512
  -7.000  -0.8193   0.01162   0.00543   0.0078  1.0000  0.0517  -3.2627   0.0000   0.0000   0.0000   0.2519
  -6.900  -0.8116   0.01143   0.00525   0.0084  1.0000  0.0551  -3.2025   0.0000   0.0000   0.0000   0.2529
  -6.800  -0.8036   0.01127   0.00512   0.0090  1.0000  0.0582  -3.1400   0.0000   0.0000   0.0000   0.2538
  -6.700  -0.7953   0.01114   0.00502   0.0095  1.0000  0.0606  -3.0821   0.0000   0.0000   0.0000   0.2547
  -6.600  -0.7868   0.01103   0.00492   0.0100  1.0000  0.0628  -3.0242   0.0000   0.0000   0.0000   0.2555
  -6.500  -0.7782   0.01095   0.00483   0.0105  1.0000  0.0646  -2.9661   0.0000   0.0000   0.0000   0.2563
  -6.400  -0.7694   0.01088   0.00476   0.0109  1.0000  0.0659  -2.9077   0.0000   0.0000   0.0000   0.2572
  -6.300  -0.7568   0.01074   0.00463   0.0106  0.9995  0.0698  -2.8406   0.0000   0.0000   0.0000   0.2570
  -6.200  -0.7433   0.01057   0.00450   0.0100  0.9989  0.0752  -2.7705   0.0000   0.0000   0.0000   0.2565
  -6.100  -0.7296   0.01043   0.00439   0.0093  0.9981  0.0794  -2.6997   0.0000   0.0000   0.0000   0.2560
  -6.000  -0.7155   0.01032   0.00430   0.0087  0.9973  0.0826  -2.6285   0.0000   0.0000   0.0000   0.2554
  -5.900  -0.7015   0.01021   0.00419   0.0080  0.9964  0.0875  -2.5583   0.0000   0.0000   0.0000   0.2548
  -5.800  -0.6878   0.01004   0.00408   0.0073  0.9955  0.0949  -2.4898   0.0000   0.0000   0.0000   0.2541
  -5.700  -0.6738   0.00991   0.00398   0.0067  0.9946  0.1008  -2.4206   0.0000   0.0000   0.0000   0.2534
  -5.600  -0.6595   0.00981   0.00389   0.0059  0.9937  0.1060  -2.3512   0.0000   0.0000   0.0000   0.2526
  -5.500  -0.6455   0.00964   0.00379   0.0052  0.9929  0.1155  -2.2835   0.0000   0.0000   0.0000   0.2517
  -5.400  -0.6312   0.00951   0.00370   0.0045  0.9921  0.1225  -2.2154   0.0000   0.0000   0.0000   0.2508
  -5.300  -0.6167   0.00941   0.00361   0.0037  0.9913  0.1294  -2.1475   0.0000   0.0000   0.0000   0.2498
  -5.200  -0.6023   0.00925   0.00352   0.0029  0.9906  0.1397  -2.0874   0.0000   0.0000   0.0000   0.2487
  -5.100  -0.5876   0.00914   0.00344   0.0021  0.9900  0.1476  -2.0268   0.0000   0.0000   0.0000   0.2474
  -5.000  -0.5738   0.00899   0.00335   0.0015  0.9892  0.1585  -1.9692   0.0000   0.0000   0.0000   0.2465
  -4.900  -0.5618   0.00885   0.00326   0.0012  0.9875  0.1687  -1.9160   0.0000   0.0000   0.0000   0.2462
  -4.800  -0.5490   0.00873   0.00317   0.0008  0.9859  0.1783  -1.8614   0.0000   0.0000   0.0000   0.2456
  -4.700  -0.5360   0.00858   0.00309   0.0004  0.9843  0.1904  -1.8068   0.0000   0.0000   0.0000   0.2448
  -4.600  -0.5224   0.00848   0.00302  -0.0002  0.9828  0.1991  -1.7512   0.0000   0.0000   0.0000   0.2438
  -4.500  -0.5089   0.00833   0.00294  -0.0007  0.9814  0.2120  -1.6966   0.0000   0.0000   0.0000   0.2428
  -4.400  -0.4948   0.00823   0.00287  -0.0014  0.9800  0.2225  -1.6411   0.0000   0.0000   0.0000   0.2414
  -4.300  -0.4808   0.00807   0.00279  -0.0021  0.9787  0.2366  -1.5864   0.0000   0.0000   0.0000   0.2400
  -4.200  -0.4664   0.00797   0.00273  -0.0028  0.9774  0.2483  -1.5364   0.0000   0.0000   0.0000   0.2383
  -4.100  -0.4526   0.00782   0.00265  -0.0035  0.9760  0.2623  -1.4885   0.0000   0.0000   0.0000   0.2368
  -4.000  -0.4385   0.00772   0.00259  -0.0041  0.9745  0.2734  -1.4405   0.0000   0.0000   0.0000   0.2351
  -3.900  -0.4247   0.00759   0.00251  -0.0047  0.9730  0.2862  -1.3935   0.0000   0.0000   0.0000   0.2334
  -3.800  -0.4105   0.00749   0.00245  -0.0054  0.9715  0.2988  -1.3461   0.0000   0.0000   0.0000   0.2314
  -3.700  -0.3965   0.00736   0.00239  -0.0060  0.9699  0.3128  -1.2996   0.0000   0.0000   0.0000   0.2294
  -3.600  -0.3867   0.00728   0.00234  -0.0057  0.9664  0.3239  -1.2611   0.0000   0.0000   0.0000   0.2299
  -3.500  -0.3761   0.00718   0.00229  -0.0055  0.9627  0.3350  -1.2233   0.0000   0.0000   0.0000   0.2299
  -3.400  -0.3649   0.00708   0.00224  -0.0055  0.9590  0.3465  -1.1871   0.0000   0.0000   0.0000   0.2296
  -3.300  -0.3531   0.00700   0.00218  -0.0056  0.9556  0.3573  -1.1501   0.0000   0.0000   0.0000   0.2289
  -3.200  -0.3411   0.00688   0.00213  -0.0057  0.9523  0.3710  -1.1132   0.0000   0.0000   0.0000   0.2279
  -3.100  -0.3288   0.00681   0.00208  -0.0059  0.9492  0.3821  -1.0759   0.0000   0.0000   0.0000   0.2267
  -3.000  -0.3171   0.00671   0.00203  -0.0060  0.9457  0.3949  -1.0400   0.0000   0.0000   0.0000   0.2258
  -2.900  -0.3071   0.00665   0.00199  -0.0057  0.9411  0.4048  -1.0091   0.0000   0.0000   0.0000   0.2263
  -2.800  -0.2969   0.00656   0.00194  -0.0055  0.9360  0.4164  -0.9794   0.0000   0.0000   0.0000   0.2265
  -2.700  -0.2861   0.00648   0.00190  -0.0053  0.9311  0.4285  -0.9492   0.0000   0.0000   0.0000   0.2264
  -2.600  -0.2752   0.00641   0.00186  -0.0052  0.9262  0.4396  -0.9190   0.0000   0.0000   0.0000   0.2262
  -2.500  -0.2643   0.00633   0.00181  -0.0050  0.9213  0.4513  -0.8891   0.0000   0.0000   0.0000   0.2259
  -2.300  -0.2434   0.00620   0.00174  -0.0046  0.9102  0.4733  -0.8353   0.0000   0.0000   0.0000   0.2261
  -2.200  -0.2328   0.00615   0.00171  -0.0044  0.9041  0.4846  -0.8093   0.0000   0.0000   0.0000   0.2261
  -2.100  -0.2223   0.00608   0.00167  -0.0042  0.8979  0.4958  -0.7838   0.0000   0.0000   0.0000   0.2263
  -2.000  -0.2117   0.00603   0.00164  -0.0040  0.8919  0.5070  -0.7582   0.0000   0.0000   0.0000   0.2263
  -1.900  -0.2010   0.00599   0.00161  -0.0038  0.8854  0.5170  -0.7351   0.0000   0.0000   0.0000   0.2261
  -1.800  -0.1906   0.00592   0.00158  -0.0036  0.8782  0.5292  -0.7129   0.0000   0.0000   0.0000   0.2264
  -1.700  -0.1799   0.00589   0.00155  -0.0034  0.8709  0.5399  -0.6905   0.0000   0.0000   0.0000   0.2264
  -1.600  -0.1695   0.00584   0.00152  -0.0032  0.8641  0.5509  -0.6685   0.0000   0.0000   0.0000   0.2266
  -1.500  -0.1588   0.00580   0.00150  -0.0030  0.8566  0.5620  -0.6484   0.0000   0.0000   0.0000   0.2264
  -1.400  -0.1482   0.00577   0.00147  -0.0028  0.8483  0.5721  -0.6289   0.0000   0.0000   0.0000   0.2264
  -1.300  -0.1379   0.00573   0.00144  -0.0025  0.8403  0.5840  -0.6098   0.0000   0.0000   0.0000   0.2271
  -1.200  -0.1269   0.00571   0.00143  -0.0024  0.8328  0.5944  -0.5903   0.0000   0.0000   0.0000   0.2264
  -1.100  -0.1165   0.00566   0.00141  -0.0022  0.8240  0.6052  -0.5734   0.0000   0.0000   0.0000   0.2266
  -1.000  -0.1060   0.00565   0.00139  -0.0019  0.8150  0.6162  -0.5567   0.0000   0.0000   0.0000   0.2271
  -0.900  -0.0952   0.00563   0.00138  -0.0018  0.8069  0.6262  -0.5398   0.0000   0.0000   0.0000   0.2266
  -0.800  -0.0847   0.00559   0.00136  -0.0016  0.7976  0.6378  -0.5235   0.0000   0.0000   0.0000   0.2268
  -0.700  -0.0741   0.00560   0.00135  -0.0014  0.7882  0.6480  -0.5088   0.0000   0.0000   0.0000   0.2269
  -0.600  -0.0636   0.00556   0.00134  -0.0012  0.7795  0.6583  -0.4942   0.0000   0.0000   0.0000   0.2269
  -0.500  -0.0529   0.00555   0.00133  -0.0010  0.7697  0.6694  -0.4796   0.0000   0.0000   0.0000   0.2266
  -0.400  -0.0424   0.00556   0.00132  -0.0008  0.7596  0.6790  -0.4656   0.0000   0.0000   0.0000   0.2272
  -0.300  -0.0318   0.00553   0.00132  -0.0006  0.7508  0.6902  -0.4527   0.0000   0.0000   0.0000   0.2272
  -0.200  -0.0211   0.00553   0.00131  -0.0004  0.7406  0.7004  -0.4398   0.0000   0.0000   0.0000   0.2257
  -0.100  -0.0107   0.00554   0.00131  -0.0002  0.7304  0.7100  -0.4272   0.0000   0.0000   0.0000   0.2299
   0.000  -0.0000   0.00552   0.00131   0.0000  0.7208  0.7208  -0.4148   0.0000   0.0000   0.0000   0.4712
   0.100   0.0107   0.00554   0.00131   0.0002  0.7100  0.7304  -0.4272   0.0000   0.0000   0.0000   0.2299
   0.200   0.0211   0.00553   0.00131   0.0004  0.7004  0.7406  -0.4398   0.0000   0.0000   0.0000   0.2257
   0.300   0.0318   0.00553   0.00132   0.0006  0.6902  0.7508  -0.4527   0.0000   0.0000   0.0000   0.2272
   0.400   0.0424   0.00556   0.00132   0.0008  0.6790  0.7596  -0.4656   0.0000   0.0000   0.0000   0.2272
   0.500   0.0529   0.00555   0.00133   0.0010  0.6694  0.7697  -0.4796   0.0000   0.0000   0.0000   0.2267
   0.600   0.0636   0.00556   0.00134   0.0012  0.6583  0.7795  -0.4942   0.0000   0.0000   0.0000   0.2269
   0.700   0.0741   0.00560   0.00135   0.0014  0.6480  0.7882  -0.5088   0.0000   0.0000   0.0000   0.2269
   0.800   0.0847   0.00559   0.00136   0.0016  0.6378  0.7976  -0.5235   0.0000   0.0000   0.0000   0.2268
   0.900   0.0952   0.00563   0.00138   0.0018  0.6262  0.8069  -0.5398   0.0000   0.0000   0.0000   0.2266
   1.000   0.1060   0.00565   0.00139   0.0019  0.6162  0.8150  -0.5567   0.0000   0.0000   0.0000   0.2271
   1.100   0.1165   0.00566   0.00141   0.0022  0.6052  0.8240  -0.5734   0.0000   0.0000   0.0000   0.2266
   1.200   0.1269   0.00571   0.00143   0.0024  0.5944  0.8328  -0.5903   0.0000   0.0000   0.0000   0.2264
   1.400   0.1482   0.00577   0.00147   0.0028  0.5721  0.8483  -0.6289   0.0000   0.0000   0.0000   0.2265
   1.500   0.1588   0.00580   0.00150   0.0030  0.5620  0.8566  -0.6484   0.0000   0.0000   0.0000   0.2264
   1.600   0.1695   0.00584   0.00152   0.0032  0.5509  0.8641  -0.6685   0.0000   0.0000   0.0000   0.2266
   1.700   0.1799   0.00589   0.00155   0.0034  0.5399  0.8709  -0.6905   0.0000   0.0000   0.0000   0.2265
   1.800   0.1906   0.00592   0.00158   0.0036  0.5291  0.8782  -0.7129   0.0000   0.0000   0.0000   0.2264
   1.900   0.2010   0.00599   0.00161   0.0038  0.5170  0.8854  -0.7351   0.0000   0.0000   0.0000   0.2261
   2.000   0.2117   0.00603   0.00164   0.0040  0.5070  0.8919  -0.7582   0.0000   0.0000   0.0000   0.2263
   2.100   0.2223   0.00608   0.00167   0.0042  0.4958  0.8979  -0.7838   0.0000   0.0000   0.0000   0.2263
   2.200   0.2328   0.00615   0.00171   0.0044  0.4846  0.9041  -0.8093   0.0000   0.0000   0.0000   0.2261
   2.300   0.2434   0.00620   0.00174   0.0046  0.4733  0.9102  -0.8353   0.0000   0.0000   0.0000   0.2261
   2.500   0.2643   0.00633   0.00181   0.0050  0.4513  0.9213  -0.8891   0.0000   0.0000   0.0000   0.2259
   2.600   0.2752   0.00641   0.00185   0.0052  0.4396  0.9262  -0.9190   0.0000   0.0000   0.0000   0.2262
   2.700   0.2861   0.00648   0.00190   0.0053  0.4285  0.9311  -0.9492   0.0000   0.0000   0.0000   0.2264
   2.800   0.2969   0.00656   0.00194   0.0055  0.4164  0.9360  -0.9794   0.0000   0.0000   0.0000   0.2265
   2.900   0.3071   0.00665   0.00199   0.0057  0.4048  0.9411  -1.0091   0.0000   0.0000   0.0000   0.2263
   3.000   0.3171   0.00671   0.00203   0.0060  0.3949  0.9458  -1.0401   0.0000   0.0000   0.0000   0.2258
   3.100   0.3288   0.00681   0.00208   0.0059  0.3821  0.9492  -1.0760   0.0000   0.0000   0.0000   0.2267
   3.200   0.3411   0.00688   0.00213   0.0057  0.3710  0.9523  -1.1132   0.0000   0.0000   0.0000   0.2279
   3.300   0.3531   0.00700   0.00218   0.0056  0.3573  0.9556  -1.1501   0.0000   0.0000   0.0000   0.2289
   3.400   0.3649   0.00708   0.00224   0.0055  0.3465  0.9590  -1.1871   0.0000   0.0000   0.0000   0.2296
   3.500   0.3761   0.00718   0.00229   0.0055  0.3350  0.9627  -1.2233   0.0000   0.0000   0.0000   0.2299
   3.600   0.3867   0.00728   0.00234   0.0057  0.3239  0.9664  -1.2611   0.0000   0.0000   0.0000   0.2299
   3.700   0.3965   0.00736   0.00239   0.0060  0.3128  0.9699  -1.2997   0.0000   0.0000   0.0000   0.2294
   3.800   0.4105   0.00749   0.00245   0.0054  0.2988  0.9715  -1.3461   0.0000   0.0000   0.0000   0.2314
   3.900   0.4247   0.00759   0.00251   0.0047  0.2862  0.9730  -1.3936   0.0000   0.0000   0.0000   0.2334
   4.000   0.4385   0.00772   0.00259   0.0041  0.2734  0.9746  -1.4406   0.0000   0.0000   0.0000   0.2351
   4.100   0.4526   0.00782   0.00265   0.0034  0.2623  0.9760  -1.4885   0.0000   0.0000   0.0000   0.2368
   4.200   0.4664   0.00797   0.00273   0.0028  0.2483  0.9774  -1.5364   0.0000   0.0000   0.0000   0.2383
   4.300   0.4808   0.00807   0.00279   0.0021  0.2366  0.9787  -1.5864   0.0000   0.0000   0.0000   0.2400
   4.400   0.4948   0.00822   0.00287   0.0014  0.2225  0.9801  -1.6412   0.0000   0.0000   0.0000   0.2414
   4.500   0.5089   0.00833   0.00294   0.0007  0.2120  0.9814  -1.6967   0.0000   0.0000   0.0000   0.2428
   4.600   0.5224   0.00848   0.00302   0.0002  0.1991  0.9828  -1.7513   0.0000   0.0000   0.0000   0.2438
   4.700   0.5360   0.00858   0.00309  -0.0004  0.1904  0.9843  -1.8068   0.0000   0.0000   0.0000   0.2448
   4.800   0.5490   0.00873   0.00317  -0.0008  0.1783  0.9860  -1.8613   0.0000   0.0000   0.0000   0.2456
   4.900   0.5618   0.00885   0.00326  -0.0012  0.1687  0.9876  -1.9159   0.0000   0.0000   0.0000   0.2462
   5.000   0.5738   0.00899   0.00335  -0.0014  0.1585  0.9892  -1.9691   0.0000   0.0000   0.0000   0.2465
   5.100   0.5876   0.00913   0.00344  -0.0021  0.1476  0.9900  -2.0270   0.0000   0.0000   0.0000   0.2475
   5.200   0.6024   0.00925   0.00352  -0.0029  0.1397  0.9907  -2.0876   0.0000   0.0000   0.0000   0.2487
   5.300   0.6167   0.00941   0.00361  -0.0037  0.1294  0.9914  -2.1477   0.0000   0.0000   0.0000   0.2498
   5.400   0.6313   0.00951   0.00370  -0.0045  0.1225  0.9921  -2.2156   0.0000   0.0000   0.0000   0.2508
   5.500   0.6455   0.00964   0.00379  -0.0052  0.1154  0.9929  -2.2837   0.0000   0.0000   0.0000   0.2518
   5.600   0.6596   0.00981   0.00389  -0.0060  0.1060  0.9937  -2.3513   0.0000   0.0000   0.0000   0.2526
   5.700   0.6739   0.00991   0.00398  -0.0067  0.1007  0.9946  -2.4207   0.0000   0.0000   0.0000   0.2534
   5.800   0.6879   0.01004   0.00408  -0.0074  0.0949  0.9955  -2.4899   0.0000   0.0000   0.0000   0.2541
   5.900   0.7015   0.01021   0.00418  -0.0080  0.0875  0.9964  -2.5585   0.0000   0.0000   0.0000   0.2548
   6.000   0.7156   0.01032   0.00430  -0.0087  0.0826  0.9973  -2.6286   0.0000   0.0000   0.0000   0.2554
   6.100   0.7296   0.01042   0.00439  -0.0093  0.0793  0.9981  -2.6999   0.0000   0.0000   0.0000   0.2560
   6.200   0.7434   0.01057   0.00450  -0.0100  0.0752  0.9989  -2.7707   0.0000   0.0000   0.0000   0.2566
   6.300   0.7569   0.01074   0.00463  -0.0106  0.0698  0.9996  -2.8408   0.0000   0.0000   0.0000   0.2570
   6.400   0.7692   0.01088   0.00476  -0.0109  0.0659  1.0000  -2.9071   0.0000   0.0000   0.0000   0.2571
   6.500   0.7780   0.01094   0.00483  -0.0104  0.0646  1.0000  -2.9655   0.0000   0.0000   0.0000   0.2563
   6.600   0.7866   0.01103   0.00492  -0.0100  0.0628  1.0000  -3.0237   0.0000   0.0000   0.0000   0.2555
   6.700   0.7951   0.01114   0.00501  -0.0095  0.0607  1.0000  -3.0816   0.0000   0.0000   0.0000   0.2546
   6.800   0.8034   0.01127   0.00512  -0.0090  0.0582  1.0000  -3.1394   0.0000   0.0000   0.0000   0.2538
   6.900   0.8114   0.01143   0.00525  -0.0084  0.0551  1.0000  -3.2020   0.0000   0.0000   0.0000   0.2529
   7.000   0.8192   0.01162   0.00543  -0.0078  0.0517  1.0000  -3.2621   0.0000   0.0000   0.0000   0.2519
   7.100   0.8280   0.01168   0.00551  -0.0073  0.0511  1.0000  -3.3303   0.0000   0.0000   0.0000   0.2512
   7.200   0.8367   0.01176   0.00559  -0.0069  0.0502  1.0000  -3.3982   0.0000   0.0000   0.0000   0.2504
   7.300   0.8453   0.01185   0.00570  -0.0064  0.0491  1.0000  -3.4660   0.0000   0.0000   0.0000   0.2497
   7.400   0.8538   0.01196   0.00581  -0.0059  0.0477  1.0000  -3.5334   0.0000   0.0000   0.0000   0.2489
   7.500   0.8621   0.01209   0.00593  -0.0054  0.0464  1.0000  -3.6006   0.0000   0.0000   0.0000   0.2481
   7.600   0.8702   0.01224   0.00606  -0.0048  0.0449  1.0000  -3.6675   0.0000   0.0000   0.0000   0.2473
   7.700   0.8781   0.01241   0.00622  -0.0042  0.0431  1.0000  -3.7326   0.0000   0.0000   0.0000   0.2465
   7.800   0.8854   0.01265   0.00646  -0.0035  0.0410  1.0000  -3.7926   0.0000   0.0000   0.0000   0.2455
   7.900   0.8935   0.01281   0.00664  -0.0029  0.0400  1.0000  -3.8585   0.0000   0.0000   0.0000   0.2447
   8.000   0.9023   0.01290   0.00673  -0.0025  0.0396  1.0000  -3.9302   0.0000   0.0000   0.0000   0.2441
   8.100   0.9110   0.01300   0.00684  -0.0020  0.0391  1.0000  -4.0018   0.0000   0.0000   0.0000   0.2435
   8.200   0.9197   0.01311   0.00696  -0.0015  0.0384  1.0000  -4.0733   0.0000   0.0000   0.0000   0.2428
   8.300   0.9283   0.01322   0.00709  -0.0011  0.0377  1.0000  -4.1449   0.0000   0.0000   0.0000   0.2422
   8.400   0.9369   0.01335   0.00722  -0.0006  0.0369  1.0000  -4.2170   0.0000   0.0000   0.0000   0.2416
   8.500   0.9454   0.01348   0.00735  -0.0001  0.0361  1.0000  -4.2895   0.0000   0.0000   0.0000   0.2410
   8.600   0.9538   0.01363   0.00749   0.0004  0.0352  1.0000  -4.3621   0.0000   0.0000   0.0000   0.2403
   8.700   0.9621   0.01380   0.00766   0.0009  0.0343  1.0000  -4.4339   0.0000   0.0000   0.0000   0.2397
   8.800   0.9699   0.01401   0.00787   0.0015  0.0331  1.0000  -4.5024   0.0000   0.0000   0.0000   0.2390
   8.900   0.9766   0.01432   0.00820   0.0022  0.0318  1.0000  -4.5626   0.0000   0.0000   0.0000   0.2381
   9.000   0.9839   0.01459   0.00849   0.0029  0.0310  1.0000  -4.6263   0.0000   0.0000   0.0000   0.2373
   9.100   0.9929   0.01469   0.00860   0.0033  0.0307  1.0000  -4.7040   0.0000   0.0000   0.0000   0.2369
   9.200   1.0019   0.01481   0.00873   0.0036  0.0304  1.0000  -4.7810   0.0000   0.0000   0.0000   0.2364
   9.300   1.0108   0.01494   0.00887   0.0040  0.0301  1.0000  -4.8577   0.0000   0.0000   0.0000   0.2359
   9.400   1.0196   0.01508   0.00903   0.0044  0.0296  1.0000  -4.9342   0.0000   0.0000   0.0000   0.2354
   9.500   1.0283   0.01523   0.00919   0.0048  0.0292  1.0000  -5.0108   0.0000   0.0000   0.0000   0.2349
   9.600   1.0371   0.01538   0.00936   0.0052  0.0287  1.0000  -5.0877   0.0000   0.0000   0.0000   0.2345
   9.700   1.0458   0.01555   0.00954   0.0056  0.0283  1.0000  -5.1650   0.0000   0.0000   0.0000   0.2340
   9.800   1.0546   0.01571   0.00971   0.0060  0.0278  1.0000  -5.2455   0.0000   0.0000   0.0000   0.2336
   9.900   1.0633   0.01588   0.00989   0.0064  0.0273  1.0000  -5.3325   0.0000   0.0000   0.0000   0.2332
  10.000   1.0718   0.01607   0.01008   0.0068  0.0269  1.0000  -5.4195   0.0000   0.0000   0.0000   0.2327
  10.100   1.0803   0.01627   0.01029   0.0072  0.0264  1.0000  -5.5057   0.0000   0.0000   0.0000   0.2323
  10.200   1.0884   0.01651   0.01055   0.0076  0.0259  1.0000  -5.5900   0.0000   0.0000   0.0000   0.2318
  10.300   1.0959   0.01680   0.01085   0.0081  0.0253  1.0000  -5.6701   0.0000   0.0000   0.0000   0.2312
  10.400   1.1024   0.01719   0.01126   0.0088  0.0247  1.0000  -5.7422   0.0000   0.0000   0.0000   0.2305
  10.500   1.1070   0.01776   0.01189   0.0097  0.0239  1.0000  -5.7991   0.0000   0.0000   0.0000   0.2296
  10.600   1.1147   0.01804   0.01219   0.0102  0.0237  1.0000  -5.8807   0.0000   0.0000   0.0000   0.2291
  10.700   1.1235   0.01820   0.01237   0.0105  0.0236  1.0000  -5.9725   0.0000   0.0000   0.0000   0.2287
  10.800   1.1323   0.01836   0.01255   0.0109  0.0234  1.0000  -6.0640   0.0000   0.0000   0.0000   0.2284
  10.900   1.1409   0.01855   0.01276   0.0112  0.0232  1.0000  -6.1549   0.0000   0.0000   0.0000   0.2280
  11.000   1.1494   0.01874   0.01298   0.0116  0.0230  1.0000  -6.2450   0.0000   0.0000   0.0000   0.2276
  11.100   1.1576   0.01895   0.01321   0.0120  0.0228  1.0000  -6.3345   0.0000   0.0000   0.0000   0.2272
  11.200   1.1658   0.01917   0.01345   0.0124  0.0225  1.0000  -6.4236   0.0000   0.0000   0.0000   0.2268
  11.300   1.1738   0.01939   0.01369   0.0128  0.0222  1.0000  -6.5131   0.0000   0.0000   0.0000   0.2264
  11.400   1.1819   0.01961   0.01394   0.0132  0.0220  1.0000  -6.6031   0.0000   0.0000   0.0000   0.2260
  11.500   1.1898   0.01984   0.01418   0.0136  0.0217  1.0000  -6.6938   0.0000   0.0000   0.0000   0.2256
  11.600   1.1978   0.02006   0.01442   0.0140  0.0214  1.0000  -6.7852   0.0000   0.0000   0.0000   0.2252
  11.700   1.2056   0.02028   0.01465   0.0144  0.0211  1.0000  -6.8772   0.0000   0.0000   0.0000   0.2248
  11.800   1.2134   0.02050   0.01490   0.0148  0.0208  1.0000  -6.9696   0.0000   0.0000   0.0000   0.2244
  11.900   1.2211   0.02073   0.01514   0.0152  0.0205  1.0000  -7.0622   0.0000   0.0000   0.0000   0.2239
  12.000   1.2286   0.02097   0.01540   0.0156  0.0203  1.0000  -7.1542   0.0000   0.0000   0.0000   0.2235
  12.100   1.2357   0.02123   0.01567   0.0161  0.0200  1.0000  -7.2440   0.0000   0.0000   0.0000   0.2230
  12.200   1.2424   0.02152   0.01598   0.0167  0.0198  1.0000  -7.3311   0.0000   0.0000   0.0000   0.2225
  12.300   1.2485   0.02185   0.01633   0.0173  0.0195  1.0000  -7.4140   0.0000   0.0000   0.0000   0.2220
  12.400   1.2538   0.02223   0.01673   0.0179  0.0193  1.0000  -7.4917   0.0000   0.0000   0.0000   0.2213
  12.500   1.2582   0.02267   0.01719   0.0187  0.0190  1.0000  -7.5623   0.0000   0.0000   0.0000   0.2206
  12.600   1.2607   0.02317   0.01773   0.0198  0.0187  1.0000  -7.6207   0.0000   0.0000   0.0000   0.2196
  12.700   1.2612   0.02376   0.01836   0.0212  0.0185  1.0000  -7.6659   0.0000   0.0000   0.0000   0.2184
  12.800   1.2597   0.02449   0.01915   0.0227  0.0182  1.0000  -7.6966   0.0000   0.0000   0.0000   0.2170
  12.900   1.2560   0.02542   0.02017   0.0243  0.0179  1.0000  -7.7090   0.0000   0.0000   0.0000   0.2155
  13.000   1.2604   0.02580   0.02057   0.0250  0.0179  1.0000  -7.7827   0.0000   0.0000   0.0000   0.2148
  13.100   1.2654   0.02612   0.02093   0.0256  0.0178  1.0000  -7.8620   0.0000   0.0000   0.0000   0.2143
  13.200   1.2702   0.02647   0.02130   0.0262  0.0177  1.0000  -7.9404   0.0000   0.0000   0.0000   0.2137
  13.300   1.2749   0.02684   0.02170   0.0268  0.0177  1.0000  -8.0178   0.0000   0.0000   0.0000   0.2132
  13.400   1.2792   0.02723   0.02213   0.0274  0.0176  1.0000  -8.0934   0.0000   0.0000   0.0000   0.2126
  13.500   1.2835   0.02765   0.02258   0.0279  0.0175  1.0000  -8.1677   0.0000   0.0000   0.0000   0.2121
  13.600   1.2874   0.02810   0.02306   0.0285  0.0174  1.0000  -8.2402   0.0000   0.0000   0.0000   0.2115
  13.700   1.2910   0.02858   0.02358   0.0290  0.0173  1.0000  -8.3104   0.0000   0.0000   0.0000   0.2110
  13.800   1.2944   0.02908   0.02412   0.0295  0.0172  1.0000  -8.3795   0.0000   0.0000   0.0000   0.2105
  13.900   1.2975   0.02963   0.02470   0.0300  0.0171  1.0000  -8.4464   0.0000   0.0000   0.0000   0.2100
  14.000   1.3005   0.03020   0.02532   0.0304  0.0170  1.0000  -8.5120   0.0000   0.0000   0.0000   0.2096
  14.100   1.3032   0.03082   0.02597   0.0308  0.0169  1.0000  -8.5758   0.0000   0.0000   0.0000   0.2091
  14.200   1.3056   0.03147   0.02668   0.0312  0.0168  1.0000  -8.6372   0.0000   0.0000   0.0000   0.2087
  14.300   1.3077   0.03215   0.02741   0.0315  0.0167  1.0000  -8.6970   0.0000   0.0000   0.0000   0.2083
  14.400   1.3096   0.03289   0.02818   0.0318  0.0166  1.0000  -8.7549   0.0000   0.0000   0.0000   0.2079
  14.500   1.3114   0.03366   0.02899   0.0320  0.0165  1.0000  -8.8116   0.0000   0.0000   0.0000   0.2076
  14.600   1.3129   0.03448   0.02985   0.0321  0.0164  1.0000  -8.8664   0.0000   0.0000   0.0000   0.2073
  14.700   1.3143   0.03534   0.03076   0.0322  0.0163  1.0000  -8.9198   0.0000   0.0000   0.0000   0.2071
  14.800   1.3154   0.03625   0.03171   0.0322  0.0162  1.0000  -8.9714   0.0000   0.0000   0.0000   0.2069
  14.900   1.3163   0.03721   0.03272   0.0322  0.0161  1.0000  -9.0208   0.0000   0.0000   0.0000   0.2067
  15.000   1.3169   0.03821   0.03376   0.0321  0.0160  1.0000  -9.0682   0.0000   0.0000   0.0000   0.2065


