xflr5 v6.61

 Calculated polar for: NACA 4412

 1 1 Reynolds number fixed          Mach number fixed         

 xtrf =   1.000 (top)        1.000 (bottom)
 Mach =   0.000     Re =     0.600 e 6     Ncrit =   9.000

  alpha     CL        CD       CDp       Cm    Top Xtr Bot Xtr   Cpmin    Chinge    XCp    
 ------- -------- --------- --------- -------- ------- ------- -------- --------- ---------
 -15.000  -0.4228   0.16701   0.16462  -0.0208  1.0000  0.0201  -1.7586   0.0000   0.0000   0.0000   0.1812
 -14.900  -0.4197   0.16584   0.16346  -0.0213  1.0000  0.0203  -1.7491   0.0000   0.0000   0.0000   0.1796
 -14.800  -0.4167   0.16462   0.16224  -0.0219  1.0000  0.0206  -1.7440   0.0000   0.0000   0.0000   0.1780
 -14.700  -0.4139   0.16334   0.16096  -0.0225  1.0000  0.0208  -1.7436   0.0000   0.0000   0.0000   0.1763
 -14.600  -0.4112   0.16200   0.15961  -0.0231  1.0000  0.0211  -1.7492   0.0000   0.0000   0.0000   0.1745
 -14.500  -0.4090   0.16047   0.15809  -0.0238  1.0000  0.0215  -1.7692   0.0000   0.0000   0.0000   0.1724
 -14.400  -0.4211   0.15541   0.15304  -0.0280  1.0000  0.0222  -2.1600   0.0000   0.0000   0.0000   0.1640
 -14.300  -0.4173   0.15414   0.15178  -0.0281  1.0000  0.0223  -2.1253   0.0000   0.0000   0.0000   0.1633
 -14.200  -0.4124   0.15321   0.15085  -0.0280  1.0000  0.0224  -2.0710   0.0000   0.0000   0.0000   0.1628
 -14.100  -0.4079   0.15229   0.14993  -0.0281  1.0000  0.0224  -2.0220   0.0000   0.0000   0.0000   0.1620
 -14.000  -0.4037   0.15137   0.14900  -0.0282  1.0000  0.0225  -1.9807   0.0000   0.0000   0.0000   0.1610
 -13.900  -0.4000   0.15042   0.14805  -0.0284  1.0000  0.0226  -1.9453   0.0000   0.0000   0.0000   0.1599
 -13.800  -0.3964   0.14943   0.14707  -0.0287  1.0000  0.0227  -1.9149   0.0000   0.0000   0.0000   0.1586
 -13.700  -0.3931   0.14841   0.14605  -0.0290  1.0000  0.0228  -1.8891   0.0000   0.0000   0.0000   0.1573
 -13.600  -0.3899   0.14735   0.14499  -0.0294  1.0000  0.0229  -1.8673   0.0000   0.0000   0.0000   0.1558
 -13.500  -0.3869   0.14625   0.14389  -0.0298  1.0000  0.0230  -1.8493   0.0000   0.0000   0.0000   0.1542
 -13.400  -0.3841   0.14510   0.14274  -0.0303  1.0000  0.0232  -1.8352   0.0000   0.0000   0.0000   0.1526
 -13.300  -0.3814   0.14390   0.14155  -0.0307  1.0000  0.0234  -1.8248   0.0000   0.0000   0.0000   0.1509
 -13.200  -0.3789   0.14265   0.14030  -0.0312  1.0000  0.0237  -1.8186   0.0000   0.0000   0.0000   0.1491
 -13.100  -0.3766   0.14134   0.13899  -0.0317  1.0000  0.0240  -1.8168   0.0000   0.0000   0.0000   0.1473
 -12.600  -0.7426   0.05245   0.04968  -0.0792  1.0000  0.0193  -7.6765   0.0000   0.0000   0.0000   0.1267
 -12.500  -0.7576   0.04805   0.04520  -0.0831  1.0000  0.0193  -7.8413   0.0000   0.0000   0.0000   0.1240
 -12.400  -0.7736   0.04456   0.04165  -0.0861  1.0000  0.0192  -7.9802   0.0000   0.0000   0.0000   0.1229
 -12.300  -0.7903   0.04284   0.03993  -0.0862  1.0000  0.0191  -8.0696   0.0000   0.0000   0.0000   0.1256
 -12.200  -0.8070   0.04211   0.03919  -0.0841  1.0000  0.0191  -8.1308   0.0000   0.0000   0.0000   0.1309
 -12.100  -0.8208   0.04110   0.03814  -0.0824  1.0000  0.0191  -8.1839   0.0000   0.0000   0.0000   0.1351
 -12.000  -0.8325   0.03997   0.03695  -0.0810  1.0000  0.0191  -8.2296   0.0000   0.0000   0.0000   0.1385
 -11.900  -0.8427   0.03885   0.03576  -0.0796  1.0000  0.0191  -8.2664   0.0000   0.0000   0.0000   0.1415
 -11.800  -0.8395   0.03649   0.03319  -0.0823  0.9985  0.0192  -8.2684   0.0000   0.0000   0.0000   0.1381
 -11.700  -0.8331   0.03468   0.03118  -0.0845  0.9971  0.0193  -8.2344   0.0000   0.0000   0.0000   0.1349
 -11.600  -0.8283   0.03259   0.02895  -0.0863  0.9958  0.0194  -8.2123   0.0000   0.0000   0.0000   0.1322
 -11.500  -0.8193   0.03152   0.02782  -0.0874  0.9950  0.0196  -8.1263   0.0000   0.0000   0.0000   0.1298
 -11.400  -0.8096   0.03086   0.02714  -0.0881  0.9939  0.0197  -8.0210   0.0000   0.0000   0.0000   0.1277
 -11.300  -0.7989   0.03033   0.02660  -0.0888  0.9928  0.0199  -7.9066   0.0000   0.0000   0.0000   0.1254
 -11.200  -0.7878   0.02981   0.02605  -0.0896  0.9918  0.0201  -7.7918   0.0000   0.0000   0.0000   0.1229
 -11.100  -0.7765   0.02927   0.02546  -0.0904  0.9908  0.0202  -7.6790   0.0000   0.0000   0.0000   0.1203
 -11.000  -0.7651   0.02867   0.02481  -0.0913  0.9900  0.0204  -7.5697   0.0000   0.0000   0.0000   0.1175
 -10.900  -0.7535   0.02806   0.02414  -0.0922  0.9892  0.0206  -7.4655   0.0000   0.0000   0.0000   0.1145
 -10.800  -0.7419   0.02740   0.02340  -0.0931  0.9885  0.0208  -7.3691   0.0000   0.0000   0.0000   0.1114
 -10.700  -0.7303   0.02667   0.02258  -0.0941  0.9878  0.0211  -7.2789   0.0000   0.0000   0.0000   0.1082
 -10.600  -0.7186   0.02590   0.02170  -0.0950  0.9873  0.0213  -7.1926   0.0000   0.0000   0.0000   0.1048
 -10.500  -0.7090   0.02519   0.02088  -0.0954  0.9858  0.0215  -7.1163   0.0000   0.0000   0.0000   0.1025
 -10.400  -0.6991   0.02451   0.02009  -0.0958  0.9842  0.0217  -7.0384   0.0000   0.0000   0.0000   0.1000
 -10.300  -0.6881   0.02387   0.01933  -0.0964  0.9829  0.0219  -6.9550   0.0000   0.0000   0.0000   0.0970
 -10.200  -0.6763   0.02331   0.01864  -0.0971  0.9819  0.0221  -6.8656   0.0000   0.0000   0.0000   0.0936
 -10.100  -0.6647   0.02260   0.01782  -0.0978  0.9810  0.0223  -6.7814   0.0000   0.0000   0.0000   0.0901
 -10.000  -0.6534   0.02178   0.01696  -0.0985  0.9803  0.0226  -6.6941   0.0000   0.0000   0.0000   0.0865
  -9.900  -0.6407   0.02132   0.01648  -0.0992  0.9797  0.0228  -6.5855   0.0000   0.0000   0.0000   0.0823
  -9.800  -0.6274   0.02095   0.01611  -0.1000  0.9792  0.0230  -6.4718   0.0000   0.0000   0.0000   0.0778
  -9.700  -0.6138   0.02062   0.01575  -0.1008  0.9787  0.0233  -6.3578   0.0000   0.0000   0.0000   0.0730
  -9.600  -0.6001   0.02028   0.01539  -0.1016  0.9783  0.0235  -6.2453   0.0000   0.0000   0.0000   0.0679
  -9.500  -0.5862   0.01994   0.01501  -0.1024  0.9779  0.0239  -6.1340   0.0000   0.0000   0.0000   0.0624
  -9.400  -0.5765   0.01965   0.01466  -0.1024  0.9758  0.0241  -6.0434   0.0000   0.0000   0.0000   0.0596
  -9.300  -0.5648   0.01933   0.01428  -0.1027  0.9743  0.0245  -5.9455   0.0000   0.0000   0.0000   0.0554
  -9.200  -0.5521   0.01899   0.01388  -0.1032  0.9732  0.0248  -5.8452   0.0000   0.0000   0.0000   0.0502
  -9.100  -0.5388   0.01867   0.01348  -0.1039  0.9723  0.0252  -5.7439   0.0000   0.0000   0.0000   0.0443
  -9.000  -0.5250   0.01840   0.01312  -0.1046  0.9716  0.0255  -5.6402   0.0000   0.0000   0.0000   0.0379
  -8.900  -0.5126   0.01772   0.01240  -0.1052  0.9709  0.0259  -5.5516   0.0000   0.0000   0.0000   0.0317
  -8.800  -0.4994   0.01734   0.01202  -0.1059  0.9702  0.0262  -5.4468   0.0000   0.0000   0.0000   0.0249
  -8.700  -0.4859   0.01705   0.01174  -0.1066  0.9695  0.0265  -5.3387   0.0000   0.0000   0.0000   0.0175
  -8.600  -0.4722   0.01679   0.01146  -0.1073  0.9689  0.0269  -5.2337   0.0000   0.0000   0.0000   0.0096
  -8.500  -0.4585   0.01653   0.01118  -0.1079  0.9682  0.0272  -5.1351   0.0000   0.0000   0.0000   0.0013
  -8.400  -0.4448   0.01626   0.01087  -0.1085  0.9676  0.0277  -5.0391   0.0000   0.0000   0.0000  -0.0075
  -8.300  -0.4359   0.01604   0.01061  -0.1081  0.9645  0.0280  -4.9635   0.0000   0.0000   0.0000  -0.0115
  -8.200  -0.4244   0.01580   0.01032  -0.1082  0.9624  0.0284  -4.8788   0.0000   0.0000   0.0000  -0.0186
  -8.100  -0.4121   0.01556   0.01003  -0.1085  0.9608  0.0288  -4.7914   0.0000   0.0000   0.0000  -0.0270
  -8.000  -0.3994   0.01536   0.00976  -0.1088  0.9593  0.0292  -4.7021   0.0000   0.0000   0.0000  -0.0363
  -7.900  -0.3878   0.01484   0.00925  -0.1092  0.9579  0.0297  -4.6218   0.0000   0.0000   0.0000  -0.0454
  -7.800  -0.3753   0.01459   0.00900  -0.1095  0.9566  0.0302  -4.5281   0.0000   0.0000   0.0000  -0.0559
  -7.700  -0.3658   0.01443   0.00884  -0.1092  0.9536  0.0306  -4.4467   0.0000   0.0000   0.0000  -0.0626
  -7.600  -0.3555   0.01427   0.00866  -0.1090  0.9508  0.0311  -4.3636   0.0000   0.0000   0.0000  -0.0708
  -7.500  -0.3443   0.01409   0.00846  -0.1091  0.9487  0.0316  -4.2789   0.0000   0.0000   0.0000  -0.0811
  -7.400  -0.3327   0.01390   0.00824  -0.1091  0.9469  0.0322  -4.1952   0.0000   0.0000   0.0000  -0.0925
  -7.300  -0.3210   0.01372   0.00801  -0.1092  0.9454  0.0327  -4.1125   0.0000   0.0000   0.0000  -0.1049
  -7.200  -0.3100   0.01358   0.00781  -0.1091  0.9435  0.0331  -4.0325   0.0000   0.0000   0.0000  -0.1170
  -7.100  -0.3011   0.01323   0.00746  -0.1088  0.9404  0.0337  -3.9649   0.0000   0.0000   0.0000  -0.1263
  -7.000  -0.2909   0.01300   0.00724  -0.1087  0.9379  0.0342  -3.8865   0.0000   0.0000   0.0000  -0.1388
  -6.900  -0.2800   0.01284   0.00707  -0.1086  0.9358  0.0348  -3.8043   0.0000   0.0000   0.0000  -0.1534
  -6.800  -0.2688   0.01269   0.00692  -0.1086  0.9339  0.0355  -3.7217   0.0000   0.0000   0.0000  -0.1698
  -6.700  -0.2574   0.01256   0.00675  -0.1086  0.9323  0.0362  -3.6399   0.0000   0.0000   0.0000  -0.1882
  -6.600  -0.2474   0.01244   0.00661  -0.1084  0.9291  0.0369  -3.5693   0.0000   0.0000   0.0000  -0.2043
  -6.500  -0.2368   0.01233   0.00646  -0.1082  0.9262  0.0375  -3.4979   0.0000   0.0000   0.0000  -0.2237
  -6.400  -0.2264   0.01207   0.00619  -0.1081  0.9237  0.0383  -3.4311   0.0000   0.0000   0.0000  -0.2443
  -6.300  -0.2158   0.01186   0.00598  -0.1080  0.9215  0.0390  -3.3594   0.0000   0.0000   0.0000  -0.2680
  -6.200  -0.2046   0.01173   0.00584  -0.1079  0.9195  0.0398  -3.2854   0.0000   0.0000   0.0000  -0.2955
  -6.100  -0.1944   0.01161   0.00572  -0.1078  0.9162  0.0406  -3.2154   0.0000   0.0000   0.0000  -0.3229
  -6.000  -0.1837   0.01149   0.00558  -0.1076  0.9133  0.0414  -3.1452   0.0000   0.0000   0.0000  -0.3550
  -5.900  -0.1727   0.01139   0.00544  -0.1075  0.9107  0.0423  -3.0746   0.0000   0.0000   0.0000  -0.3925
  -5.800  -0.1617   0.01124   0.00525  -0.1075  0.9084  0.0432  -3.0059   0.0000   0.0000   0.0000  -0.4353
  -5.700  -0.1512   0.01103   0.00506  -0.1073  0.9057  0.0443  -2.9382   0.0000   0.0000   0.0000  -0.4814
  -5.600  -0.1407   0.01092   0.00496  -0.1072  0.9023  0.0454  -2.8683   0.0000   0.0000   0.0000  -0.5349
  -5.500  -0.1298   0.01083   0.00485  -0.1071  0.8992  0.0465  -2.7988   0.0000   0.0000   0.0000  -0.5991
  -5.400  -0.1187   0.01073   0.00472  -0.1070  0.8966  0.0476  -2.7298   0.0000   0.0000   0.0000  -0.6773
  -5.300  -0.1074   0.01066   0.00460  -0.1070  0.8941  0.0486  -2.6610   0.0000   0.0000   0.0000  -0.7733
  -5.200  -0.0972   0.01044   0.00440  -0.1068  0.8904  0.0500  -2.6006   0.0000   0.0000   0.0000  -0.8781
  -5.100  -0.0865   0.01033   0.00430  -0.1067  0.8871  0.0513  -2.5372   0.0000   0.0000   0.0000  -1.0170
  -5.000  -0.0753   0.01024   0.00419  -0.1067  0.8842  0.0528  -2.4734   0.0000   0.0000   0.0000  -1.2019
  -4.900  -0.0641   0.01017   0.00409  -0.1066  0.8816  0.0543  -2.4102   0.0000   0.0000   0.0000  -1.4553
  -4.800  -0.0534   0.01006   0.00397  -0.1065  0.8778  0.0558  -2.3504   0.0000   0.0000   0.0000  -1.7942
  -4.700  -0.0427   0.00992   0.00384  -0.1064  0.8743  0.0576  -2.2900   0.0000   0.0000   0.0000  -2.3033
  -4.600  -0.0316   0.00984   0.00374  -0.1063  0.8712  0.0594  -2.2281   0.0000   0.0000   0.0000  -3.1966
  -4.500  -0.0204   0.00977   0.00365  -0.1063  0.8682  0.0612  -2.1668   0.0000   0.0000   0.0000  -5.0773
  -4.400  -0.0095   0.00969   0.00356  -0.1062  0.8642  0.0630  -2.1076   0.0000   0.0000   0.0000  -11.1644
  -4.300   0.0013   0.00956   0.00344  -0.1061  0.8606  0.0654  -2.0498   0.0000   0.0000   0.0000  83.1489
  -4.200   0.0125   0.00949   0.00335  -0.1061  0.8574  0.0677  -1.9934   0.0000   0.0000   0.0000   8.9427
  -4.100   0.0235   0.00943   0.00328  -0.1060  0.8537  0.0700  -1.9380   0.0000   0.0000   0.0000   4.8406
  -4.000   0.0344   0.00932   0.00317  -0.1059  0.8498  0.0727  -1.8845   0.0000   0.0000   0.0000   3.3867
  -3.900   0.0454   0.00924   0.00309  -0.1059  0.8462  0.0755  -1.8296   0.0000   0.0000   0.0000   2.6228
  -3.800   0.0566   0.00919   0.00301  -0.1058  0.8429  0.0784  -1.7749   0.0000   0.0000   0.0000   2.1520
  -3.700   0.0676   0.00910   0.00293  -0.1057  0.8386  0.0816  -1.7220   0.0000   0.0000   0.0000   1.8420
  -3.600   0.0786   0.00902   0.00286  -0.1057  0.8346  0.0851  -1.6686   0.0000   0.0000   0.0000   1.6178
  -3.500   0.0897   0.00898   0.00279  -0.1056  0.8311  0.0885  -1.6155   0.0000   0.0000   0.0000   1.4460
  -3.400   0.1007   0.00889   0.00272  -0.1056  0.8268  0.0925  -1.5669   0.0000   0.0000   0.0000   1.3147
  -3.300   0.1117   0.00883   0.00266  -0.1055  0.8225  0.0967  -1.5179   0.0000   0.0000   0.0000   1.2085
  -3.200   0.1228   0.00879   0.00259  -0.1054  0.8188  0.1008  -1.4692   0.0000   0.0000   0.0000   1.1206
  -3.100   0.1338   0.00871   0.00253  -0.1054  0.8144  0.1059  -1.4213   0.0000   0.0000   0.0000   1.0484
  -3.000   0.1449   0.00867   0.00248  -0.1053  0.8100  0.1107  -1.3734   0.0000   0.0000   0.0000   0.9864
  -2.900   0.1559   0.00860   0.00242  -0.1053  0.8060  0.1163  -1.3261   0.0000   0.0000   0.0000   0.9337
  -2.800   0.1670   0.00856   0.00238  -0.1052  0.8015  0.1220  -1.2790   0.0000   0.0000   0.0000   0.8876
  -2.700   0.1780   0.00850   0.00233  -0.1052  0.7969  0.1281  -1.2339   0.0000   0.0000   0.0000   0.8476
  -2.600   0.1890   0.00847   0.00228  -0.1051  0.7928  0.1344  -1.1904   0.0000   0.0000   0.0000   0.8119
  -2.500   0.2000   0.00840   0.00224  -0.1050  0.7880  0.1414  -1.1475   0.0000   0.0000   0.0000   0.7805
  -2.400   0.2111   0.00837   0.00220  -0.1050  0.7832  0.1483  -1.1048   0.0000   0.0000   0.0000   0.7521
  -2.300   0.2220   0.00832   0.00216  -0.1049  0.7790  0.1562  -1.0626   0.0000   0.0000   0.0000   0.7268
  -2.200   0.2331   0.00827   0.00213  -0.1049  0.7739  0.1640  -1.0225   0.0000   0.0000   0.0000   0.7037
  -2.100   0.2441   0.00824   0.00209  -0.1048  0.7691  0.1724  -0.9835   0.0000   0.0000   0.0000   0.6827
  -2.000   0.2551   0.00820   0.00206  -0.1048  0.7645  0.1813  -0.9449   0.0000   0.0000   0.0000   0.6636
  -1.900   0.2661   0.00816   0.00204  -0.1047  0.7593  0.1903  -0.9066   0.0000   0.0000   0.0000   0.6461
  -1.800   0.2770   0.00814   0.00201  -0.1046  0.7546  0.1999  -0.8686   0.0000   0.0000   0.0000   0.6299
  -1.700   0.2880   0.00809   0.00199  -0.1046  0.7495  0.2101  -0.8328   0.0000   0.0000   0.0000   0.6150
  -1.600   0.2990   0.00806   0.00197  -0.1045  0.7444  0.2204  -0.7979   0.0000   0.0000   0.0000   0.6013
  -1.500   0.3099   0.00803   0.00195  -0.1045  0.7395  0.2313  -0.7633   0.0000   0.0000   0.0000   0.5884
  -1.400   0.3209   0.00799   0.00193  -0.1044  0.7341  0.2427  -0.7289   0.0000   0.0000   0.0000   0.5765
  -1.300   0.3318   0.00797   0.00191  -0.1043  0.7290  0.2546  -0.6951   0.0000   0.0000   0.0000   0.5653
  -1.200   0.3427   0.00794   0.00190  -0.1043  0.7237  0.2674  -0.6749   0.0000   0.0000   0.0000   0.5549
  -1.100   0.3536   0.00791   0.00189  -0.1042  0.7183  0.2808  -0.6827   0.0000   0.0000   0.0000   0.5451
  -1.000   0.3645   0.00788   0.00188  -0.1042  0.7133  0.2949  -0.6906   0.0000   0.0000   0.0000   0.5360
  -0.900   0.3754   0.00784   0.00187  -0.1041  0.7077  0.3101  -0.6986   0.0000   0.0000   0.0000   0.5273
  -0.700   0.3970   0.00777   0.00185  -0.1040  0.6970  0.3452  -0.7147   0.0000   0.0000   0.0000   0.5115
  -0.600   0.4077   0.00772   0.00185  -0.1039  0.6916  0.3660  -0.7226   0.0000   0.0000   0.0000   0.5043
  -0.500   0.4184   0.00765   0.00184  -0.1038  0.6863  0.3923  -0.7306   0.0000   0.0000   0.0000   0.4975
  -0.400   0.4289   0.00755   0.00184  -0.1037  0.6807  0.4303  -0.7388   0.0000   0.0000   0.0000   0.4910
  -0.300   0.4391   0.00742   0.00186  -0.1036  0.6757  0.4868  -0.7468   0.0000   0.0000   0.0000   0.4850
  -0.200   0.4493   0.00727   0.00188  -0.1035  0.6700  0.5498  -0.7548   0.0000   0.0000   0.0000   0.4792
  -0.100   0.4591   0.00714   0.00190  -0.1032  0.6647  0.6081  -0.7627   0.0000   0.0000   0.0000   0.4736
   0.000   0.4689   0.00701   0.00193  -0.1030  0.6594  0.6636  -0.7706   0.0000   0.0000   0.0000   0.4681
   0.100   0.4783   0.00689   0.00196  -0.1025  0.6540  0.7190  -0.7786   0.0000   0.0000   0.0000   0.4628
   0.200   0.4872   0.00677   0.00199  -0.1019  0.6491  0.7745  -0.7863   0.0000   0.0000   0.0000   0.4576
   0.300   0.4953   0.00665   0.00203  -0.1011  0.6437  0.8305  -0.7937   0.0000   0.0000   0.0000   0.4523
   0.400   0.5026   0.00656   0.00206  -0.1000  0.6388  0.8871  -0.8006   0.0000   0.0000   0.0000   0.4470
   0.500   0.5144   0.00652   0.00209  -0.0999  0.6335  0.9402  -0.8100   0.0000   0.0000   0.0000   0.4420
   0.600   0.5340   0.00655   0.00209  -0.1016  0.6278  0.9742  -0.8239   0.0000   0.0000   0.0000   0.4381
   0.700   0.5535   0.00659   0.00209  -0.1034  0.6224  0.9930  -0.8378   0.0000   0.0000   0.0000   0.4346
   0.800   0.5695   0.00663   0.00209  -0.1045  0.6167  1.0000  -0.8497   0.0000   0.0000   0.0000   0.4311
   1.000   0.5900   0.00672   0.00211  -0.1041  0.6069  1.0000  -0.8676   0.0000   0.0000   0.0000   0.4238
   1.100   0.6002   0.00677   0.00212  -0.1039  0.6020  1.0000  -0.8767   0.0000   0.0000   0.0000   0.4203
   1.200   0.6105   0.00683   0.00214  -0.1037  0.5975  1.0000  -0.8858   0.0000   0.0000   0.0000   0.4170
   1.300   0.6210   0.00687   0.00216  -0.1035  0.5925  1.0000  -0.8951   0.0000   0.0000   0.0000   0.4137
   1.400   0.6312   0.00693   0.00217  -0.1033  0.5880  1.0000  -0.9046   0.0000   0.0000   0.0000   0.4106
   1.500   0.6417   0.00698   0.00219  -0.1032  0.5837  1.0000  -0.9142   0.0000   0.0000   0.0000   0.4076
   1.600   0.6522   0.00702   0.00222  -0.1030  0.5790  1.0000  -0.9239   0.0000   0.0000   0.0000   0.4047
   1.700   0.6626   0.00708   0.00224  -0.1029  0.5748  1.0000  -0.9335   0.0000   0.0000   0.0000   0.4018
   1.800   0.6731   0.00714   0.00226  -0.1027  0.5707  1.0000  -0.9436   0.0000   0.0000   0.0000   0.3991
   1.900   0.6837   0.00718   0.00229  -0.1026  0.5664  1.0000  -0.9537   0.0000   0.0000   0.0000   0.3964
   2.000   0.6942   0.00724   0.00231  -0.1024  0.5623  1.0000  -0.9638   0.0000   0.0000   0.0000   0.3939
   2.100   0.7047   0.00730   0.00234  -0.1023  0.5586  1.0000  -0.9741   0.0000   0.0000   0.0000   0.3914
   2.200   0.7154   0.00734   0.00237  -0.1022  0.5545  1.0000  -0.9847   0.0000   0.0000   0.0000   0.3889
   2.300   0.7259   0.00740   0.00240  -0.1021  0.5506  1.0000  -0.9953   0.0000   0.0000   0.0000   0.3866
   2.400   0.7363   0.00747   0.00244  -0.1019  0.5472  1.0000  -1.0058   0.0000   0.0000   0.0000   0.3843
   2.500   0.7472   0.00751   0.00247  -0.1018  0.5434  1.0000  -1.0170   0.0000   0.0000   0.0000   0.3821
   2.600   0.7578   0.00756   0.00250  -0.1017  0.5397  1.0000  -1.0281   0.0000   0.0000   0.0000   0.3799
   2.700   0.7683   0.00763   0.00254  -0.1016  0.5362  1.0000  -1.0392   0.0000   0.0000   0.0000   0.3778
   2.800   0.7789   0.00769   0.00258  -0.1015  0.5330  1.0000  -1.0507   0.0000   0.0000   0.0000   0.3757
   2.900   0.7897   0.00773   0.00261  -0.1014  0.5294  1.0000  -1.0625   0.0000   0.0000   0.0000   0.3738
   3.000   0.8004   0.00779   0.00265  -0.1013  0.5259  1.0000  -1.0742   0.0000   0.0000   0.0000   0.3718
   3.100   0.8108   0.00786   0.00270  -0.1012  0.5228  1.0000  -1.0863   0.0000   0.0000   0.0000   0.3699
   3.200   0.8215   0.00791   0.00274  -0.1011  0.5196  1.0000  -1.0985   0.0000   0.0000   0.0000   0.3681
   3.300   0.8324   0.00796   0.00278  -0.1010  0.5162  1.0000  -1.1112   0.0000   0.0000   0.0000   0.3663
   3.400   0.8430   0.00801   0.00282  -0.1009  0.5130  1.0000  -1.1240   0.0000   0.0000   0.0000   0.3645
   3.500   0.8534   0.00809   0.00287  -0.1008  0.5099  1.0000  -1.1370   0.0000   0.0000   0.0000   0.3628
   3.600   0.8641   0.00815   0.00291  -0.1007  0.5069  1.0000  -1.1504   0.0000   0.0000   0.0000   0.3611
   3.700   0.8750   0.00819   0.00296  -0.1006  0.5036  1.0000  -1.1644   0.0000   0.0000   0.0000   0.3595
   3.800   0.8856   0.00825   0.00301  -0.1005  0.5004  1.0000  -1.1785   0.0000   0.0000   0.0000   0.3579
   3.900   0.8960   0.00832   0.00306  -0.1004  0.4974  1.0000  -1.1932   0.0000   0.0000   0.0000   0.3563
   4.000   0.9066   0.00839   0.00311  -0.1003  0.4945  1.0000  -1.2085   0.0000   0.0000   0.0000   0.3548
   4.100   0.9174   0.00843   0.00316  -0.1002  0.4912  1.0000  -1.2248   0.0000   0.0000   0.0000   0.3533
   4.200   0.9281   0.00849   0.00321  -0.1001  0.4880  1.0000  -1.2424   0.0000   0.0000   0.0000   0.3518
   4.300   0.9385   0.00856   0.00327  -0.1000  0.4849  1.0000  -1.2621   0.0000   0.0000   0.0000   0.3504
   4.400   0.9489   0.00864   0.00332  -0.0998  0.4819  1.0000  -1.2855   0.0000   0.0000   0.0000   0.3489
   4.500   0.9597   0.00868   0.00338  -0.0998  0.4786  1.0000  -1.3124   0.0000   0.0000   0.0000   0.3476
   4.600   0.9703   0.00874   0.00343  -0.0997  0.4751  1.0000  -1.3407   0.0000   0.0000   0.0000   0.3462
   4.700   0.9806   0.00881   0.00349  -0.0995  0.4719  1.0000  -1.3708   0.0000   0.0000   0.0000   0.3449
   4.800   0.9911   0.00889   0.00355  -0.0994  0.4686  1.0000  -1.4021   0.0000   0.0000   0.0000   0.3436
   4.900   1.0018   0.00893   0.00360  -0.0993  0.4649  1.0000  -1.4355   0.0000   0.0000   0.0000   0.3423
   5.000   1.0121   0.00900   0.00366  -0.0992  0.4611  1.0000  -1.4697   0.0000   0.0000   0.0000   0.3410
   5.100   1.0222   0.00909   0.00373  -0.0990  0.4574  1.0000  -1.5046   0.0000   0.0000   0.0000   0.3398
   5.200   1.0329   0.00913   0.00378  -0.0989  0.4533  1.0000  -1.5425   0.0000   0.0000   0.0000   0.3386
   5.300   1.0432   0.00920   0.00384  -0.0988  0.4489  1.0000  -1.5800   0.0000   0.0000   0.0000   0.3374
   5.400   1.0531   0.00930   0.00391  -0.0985  0.4448  1.0000  -1.6177   0.0000   0.0000   0.0000   0.3361
   5.500   1.0637   0.00934   0.00397  -0.0984  0.4404  1.0000  -1.6582   0.0000   0.0000   0.0000   0.3350
   5.600   1.0740   0.00941   0.00403  -0.0983  0.4358  1.0000  -1.6990   0.0000   0.0000   0.0000   0.3339
   5.800   1.0944   0.00956   0.00417  -0.0980  0.4271  1.0000  -1.7846   0.0000   0.0000   0.0000   0.3316
   5.900   1.1046   0.00964   0.00423  -0.0978  0.4225  1.0000  -1.8284   0.0000   0.0000   0.0000   0.3305
   6.000   1.1144   0.00973   0.00431  -0.0976  0.4182  1.0000  -1.8734   0.0000   0.0000   0.0000   0.3294
   6.100   1.1249   0.00978   0.00437  -0.0975  0.4134  1.0000  -1.9203   0.0000   0.0000   0.0000   0.3284
   6.200   1.1349   0.00987   0.00445  -0.0973  0.4085  1.0000  -1.9664   0.0000   0.0000   0.0000   0.3273
   6.300   1.1449   0.00995   0.00452  -0.0971  0.4038  1.0000  -2.0129   0.0000   0.0000   0.0000   0.3263
   6.400   1.1551   0.01002   0.00460  -0.0969  0.3984  1.0000  -2.0621   0.0000   0.0000   0.0000   0.3253
   6.500   1.1647   0.01013   0.00468  -0.0967  0.3933  1.0000  -2.1108   0.0000   0.0000   0.0000   0.3242
   6.600   1.1750   0.01020   0.00475  -0.0965  0.3875  1.0000  -2.1614   0.0000   0.0000   0.0000   0.3232
   6.700   1.1845   0.01031   0.00484  -0.0962  0.3816  1.0000  -2.2112   0.0000   0.0000   0.0000   0.3222
   6.800   1.1945   0.01040   0.00493  -0.0961  0.3753  1.0000  -2.2647   0.0000   0.0000   0.0000   0.3213
   7.000   1.2135   0.01062   0.00511  -0.0955  0.3618  1.0000  -2.3703   0.0000   0.0000   0.0000   0.3193
   7.100   1.2227   0.01075   0.00521  -0.0952  0.3548  1.0000  -2.4228   0.0000   0.0000   0.0000   0.3183
   7.200   1.2320   0.01087   0.00532  -0.0949  0.3468  1.0000  -2.4760   0.0000   0.0000   0.0000   0.3173
   7.300   1.2412   0.01101   0.00543  -0.0946  0.3389  1.0000  -2.5317   0.0000   0.0000   0.0000   0.3164
   7.400   1.2499   0.01117   0.00555  -0.0942  0.3305  1.0000  -2.5869   0.0000   0.0000   0.0000   0.3154
   7.500   1.2586   0.01133   0.00568  -0.0938  0.3212  1.0000  -2.6425   0.0000   0.0000   0.0000   0.3144
   7.600   1.2673   0.01149   0.00581  -0.0935  0.3117  1.0000  -2.6983   0.0000   0.0000   0.0000   0.3135
   7.700   1.2757   0.01168   0.00595  -0.0930  0.3019  1.0000  -2.7536   0.0000   0.0000   0.0000   0.3125
   7.800   1.2838   0.01188   0.00611  -0.0925  0.2916  1.0000  -2.8085   0.0000   0.0000   0.0000   0.3116
   7.900   1.2916   0.01209   0.00627  -0.0920  0.2806  1.0000  -2.8631   0.0000   0.0000   0.0000   0.3106
   8.000   1.2993   0.01232   0.00644  -0.0915  0.2692  1.0000  -2.9174   0.0000   0.0000   0.0000   0.3096
   8.100   1.3067   0.01256   0.00662  -0.0909  0.2575  1.0000  -2.9734   0.0000   0.0000   0.0000   0.3086
   8.200   1.3140   0.01282   0.00682  -0.0903  0.2453  1.0000  -3.0299   0.0000   0.0000   0.0000   0.3077
   8.300   1.3209   0.01309   0.00703  -0.0897  0.2327  1.0000  -3.0858   0.0000   0.0000   0.0000   0.3067
   8.400   1.3276   0.01337   0.00724  -0.0890  0.2199  1.0000  -3.1412   0.0000   0.0000   0.0000   0.3057
   8.500   1.3340   0.01367   0.00747  -0.0883  0.2069  1.0000  -3.1961   0.0000   0.0000   0.0000   0.3047
   8.600   1.3402   0.01398   0.00771  -0.0875  0.1940  1.0000  -3.2504   0.0000   0.0000   0.0000   0.3037
   8.700   1.3461   0.01430   0.00796  -0.0867  0.1812  1.0000  -3.3040   0.0000   0.0000   0.0000   0.3026
   8.800   1.3517   0.01463   0.00822  -0.0859  0.1688  1.0000  -3.3570   0.0000   0.0000   0.0000   0.3016
   8.900   1.3570   0.01497   0.00849  -0.0850  0.1569  1.0000  -3.4095   0.0000   0.0000   0.0000   0.3006
   9.000   1.3619   0.01530   0.00875  -0.0840  0.1457  1.0000  -3.4630   0.0000   0.0000   0.0000   0.2995
   9.100   1.3664   0.01563   0.00902  -0.0830  0.1354  1.0000  -3.5157   0.0000   0.0000   0.0000   0.2984
   9.200   1.3708   0.01595   0.00929  -0.0819  0.1258  1.0000  -3.5686   0.0000   0.0000   0.0000   0.2973
   9.300   1.3753   0.01629   0.00957  -0.0809  0.1169  1.0000  -3.6218   0.0000   0.0000   0.0000   0.2962
   9.400   1.3796   0.01663   0.00987  -0.0798  0.1088  1.0000  -3.6746   0.0000   0.0000   0.0000   0.2951
   9.600   1.3887   0.01730   0.01046  -0.0779  0.0942  1.0000  -3.7828   0.0000   0.0000   0.0000   0.2930
   9.700   1.3932   0.01763   0.01076  -0.0769  0.0882  1.0000  -3.8369   0.0000   0.0000   0.0000   0.2919
   9.800   1.3975   0.01799   0.01108  -0.0759  0.0825  1.0000  -3.8906   0.0000   0.0000   0.0000   0.2909
   9.900   1.4025   0.01830   0.01138  -0.0750  0.0776  1.0000  -3.9469   0.0000   0.0000   0.0000   0.2899
  10.000   1.4066   0.01867   0.01172  -0.0740  0.0730  1.0000  -3.9999   0.0000   0.0000   0.0000   0.2889
  10.100   1.4118   0.01898   0.01203  -0.0732  0.0692  1.0000  -4.0573   0.0000   0.0000   0.0000   0.2880
  10.200   1.4160   0.01935   0.01237  -0.0723  0.0655  1.0000  -4.1131   0.0000   0.0000   0.0000   0.2870
  10.300   1.4208   0.01968   0.01270  -0.0714  0.0624  1.0000  -4.1726   0.0000   0.0000   0.0000   0.2861
  10.400   1.4255   0.02002   0.01304  -0.0706  0.0594  1.0000  -4.2319   0.0000   0.0000   0.0000   0.2852
  10.500   1.4291   0.02045   0.01344  -0.0696  0.0567  1.0000  -4.2865   0.0000   0.0000   0.0000   0.2842
  10.600   1.4345   0.02075   0.01376  -0.0689  0.0545  1.0000  -4.3491   0.0000   0.0000   0.0000   0.2834
  10.700   1.4391   0.02111   0.01412  -0.0681  0.0524  1.0000  -4.4086   0.0000   0.0000   0.0000   0.2825
  10.800   1.4426   0.02155   0.01455  -0.0671  0.0504  1.0000  -4.4635   0.0000   0.0000   0.0000   0.2815
  10.900   1.4472   0.02191   0.01493  -0.0664  0.0487  1.0000  -4.5231   0.0000   0.0000   0.0000   0.2807
  11.000   1.4521   0.02227   0.01530  -0.0656  0.0471  1.0000  -4.5843   0.0000   0.0000   0.0000   0.2799
  11.100   1.4562   0.02267   0.01571  -0.0648  0.0456  1.0000  -4.6427   0.0000   0.0000   0.0000   0.2790
  11.200   1.4592   0.02316   0.01620  -0.0639  0.0441  1.0000  -4.6966   0.0000   0.0000   0.0000   0.2781
  11.300   1.4630   0.02360   0.01665  -0.0631  0.0429  1.0000  -4.7534   0.0000   0.0000   0.0000   0.2773
  11.400   1.4680   0.02397   0.01705  -0.0625  0.0417  1.0000  -4.8158   0.0000   0.0000   0.0000   0.2765
  11.500   1.4722   0.02439   0.01748  -0.0617  0.0405  1.0000  -4.8755   0.0000   0.0000   0.0000   0.2758
  11.600   1.4757   0.02487   0.01797  -0.0610  0.0395  1.0000  -4.9322   0.0000   0.0000   0.0000   0.2750
  11.700   1.4780   0.02545   0.01855  -0.0601  0.0385  1.0000  -4.9838   0.0000   0.0000   0.0000   0.2741
  11.800   1.4807   0.02600   0.01912  -0.0593  0.0376  1.0000  -5.0363   0.0000   0.0000   0.0000   0.2733
  11.900   1.4853   0.02642   0.01957  -0.0587  0.0368  1.0000  -5.0980   0.0000   0.0000   0.0000   0.2726
  12.000   1.4894   0.02688   0.02006  -0.0581  0.0359  1.0000  -5.1577   0.0000   0.0000   0.0000   0.2719
  12.100   1.4929   0.02739   0.02059  -0.0574  0.0352  1.0000  -5.2182   0.0000   0.0000   0.0000   0.2712
  12.200   1.4958   0.02796   0.02118  -0.0567  0.0344  1.0000  -5.2762   0.0000   0.0000   0.0000   0.2705
  12.300   1.4977   0.02862   0.02184  -0.0559  0.0337  1.0000  -5.3296   0.0000   0.0000   0.0000   0.2697
  12.400   1.4978   0.02943   0.02267  -0.0551  0.0330  1.0000  -5.3734   0.0000   0.0000   0.0000   0.2690
  12.500   1.5016   0.02996   0.02323  -0.0545  0.0325  1.0000  -5.4351   0.0000   0.0000   0.0000   0.2683
  12.600   1.5053   0.03050   0.02380  -0.0540  0.0319  1.0000  -5.4974   0.0000   0.0000   0.0000   0.2677
  12.700   1.5087   0.03107   0.02440  -0.0534  0.0313  1.0000  -5.5582   0.0000   0.0000   0.0000   0.2670
  12.800   1.5117   0.03168   0.02505  -0.0529  0.0307  1.0000  -5.6177   0.0000   0.0000   0.0000   0.2664
  12.900   1.5142   0.03235   0.02573  -0.0524  0.0302  1.0000  -5.6752   0.0000   0.0000   0.0000   0.2658
  13.000   1.5159   0.03309   0.02649  -0.0518  0.0297  1.0000  -5.7289   0.0000   0.0000   0.0000   0.2652
  13.100   1.5166   0.03394   0.02736  -0.0512  0.0292  1.0000  -5.7766   0.0000   0.0000   0.0000   0.2646
  13.200   1.5155   0.03495   0.02839  -0.0505  0.0288  1.0000  -5.8150   0.0000   0.0000   0.0000   0.2639
  13.300   1.5167   0.03578   0.02925  -0.0500  0.0284  1.0000  -5.8642   0.0000   0.0000   0.0000   0.2634
  13.400   1.5197   0.03646   0.02997  -0.0496  0.0280  1.0000  -5.9231   0.0000   0.0000   0.0000   0.2628
  13.500   1.5221   0.03720   0.03075  -0.0491  0.0276  1.0000  -5.9794   0.0000   0.0000   0.0000   0.2623
  13.600   1.5241   0.03799   0.03157  -0.0487  0.0272  1.0000  -6.0337   0.0000   0.0000   0.0000   0.2618
  13.700   1.5258   0.03880   0.03242  -0.0483  0.0268  1.0000  -6.0873   0.0000   0.0000   0.0000   0.2613
  13.800   1.5273   0.03965   0.03329  -0.0480  0.0265  1.0000  -6.1398   0.0000   0.0000   0.0000   0.2608
  13.900   1.5286   0.04053   0.03420  -0.0476  0.0261  1.0000  -6.1914   0.0000   0.0000   0.0000   0.2603
  14.000   1.5292   0.04149   0.03519  -0.0472  0.0258  1.0000  -6.2398   0.0000   0.0000   0.0000   0.2599
  14.100   1.5290   0.04254   0.03626  -0.0469  0.0255  1.0000  -6.2836   0.0000   0.0000   0.0000   0.2594
  14.200   1.5278   0.04373   0.03747  -0.0465  0.0252  1.0000  -6.3212   0.0000   0.0000   0.0000   0.2590
  14.300   1.5252   0.04507   0.03884  -0.0462  0.0249  1.0000  -6.3502   0.0000   0.0000   0.0000   0.2586
  14.400   1.5235   0.04634   0.04015  -0.0459  0.0247  1.0000  -6.3836   0.0000   0.0000   0.0000   0.2582
  14.500   1.5255   0.04723   0.04107  -0.0457  0.0244  1.0000  -6.4380   0.0000   0.0000   0.0000   0.2578
  14.600   1.5270   0.04818   0.04207  -0.0455  0.0241  1.0000  -6.4895   0.0000   0.0000   0.0000   0.2575
  14.700   1.5280   0.04919   0.04313  -0.0453  0.0238  1.0000  -6.5384   0.0000   0.0000   0.0000   0.2571
  14.800   1.5288   0.05025   0.04422  -0.0451  0.0236  1.0000  -6.5862   0.0000   0.0000   0.0000   0.2568
  14.900   1.5292   0.05134   0.04535  -0.0450  0.0233  1.0000  -6.6332   0.0000   0.0000   0.0000   0.2565
  15.000   1.5296   0.05247   0.04651  -0.0449  0.0230  1.0000  -6.6818   0.0000   0.0000   0.0000   0.2562


