xflr5 v6.61

 Calculated polar for: NACA 0012

 1 1 Reynolds number fixed          Mach number fixed         

 xtrf =   1.000 (top)        1.000 (bottom)
 Mach =   0.000     Re =     0.700 e 6     Ncrit =   9.000

  alpha     CL        CD       CDp       Cm    Top Xtr Bot Xtr   Cpmin    Chinge    XCp    
 ------- -------- --------- --------- -------- ------- ------- -------- --------- ---------
 -15.000  -1.2720   0.04312   0.03873  -0.0323  1.0000  0.0170  -8.6770   0.0000   0.0000   0.0000   0.2054
 -14.900  -1.2722   0.04193   0.03748  -0.0326  1.0000  0.0171  -8.6398   0.0000   0.0000   0.0000   0.2054
 -14.800  -1.2721   0.04080   0.03630  -0.0328  1.0000  0.0172  -8.5998   0.0000   0.0000   0.0000   0.2055
 -14.700  -1.2718   0.03973   0.03518  -0.0330  1.0000  0.0173  -8.5576   0.0000   0.0000   0.0000   0.2056
 -14.600  -1.2711   0.03873   0.03414  -0.0331  1.0000  0.0173  -8.5122   0.0000   0.0000   0.0000   0.2057
 -14.500  -1.2702   0.03777   0.03312  -0.0331  1.0000  0.0174  -8.4649   0.0000   0.0000   0.0000   0.2059
 -14.400  -1.2688   0.03689   0.03219  -0.0331  1.0000  0.0175  -8.4137   0.0000   0.0000   0.0000   0.2060
 -14.300  -1.2671   0.03605   0.03130  -0.0330  1.0000  0.0176  -8.3604   0.0000   0.0000   0.0000   0.2063
 -14.200  -1.2651   0.03527   0.03048  -0.0329  1.0000  0.0176  -8.3039   0.0000   0.0000   0.0000   0.2065
 -14.100  -1.2628   0.03453   0.02970  -0.0327  1.0000  0.0177  -8.2457   0.0000   0.0000   0.0000   0.2068
 -14.000  -1.2602   0.03385   0.02898  -0.0325  1.0000  0.0178  -8.1846   0.0000   0.0000   0.0000   0.2071
 -13.900  -1.2574   0.03321   0.02830  -0.0323  1.0000  0.0178  -8.1220   0.0000   0.0000   0.0000   0.2074
 -13.800  -1.2543   0.03261   0.02766  -0.0320  1.0000  0.0179  -8.0569   0.0000   0.0000   0.0000   0.2078
 -13.700  -1.2510   0.03205   0.02707  -0.0317  1.0000  0.0179  -7.9903   0.0000   0.0000   0.0000   0.2082
 -13.600  -1.2570   0.03064   0.02556  -0.0307  1.0000  0.0181  -8.0003   0.0000   0.0000   0.0000   0.2092
 -13.500  -1.2611   0.02946   0.02430  -0.0298  1.0000  0.0183  -7.9934   0.0000   0.0000   0.0000   0.2102
 -13.400  -1.2634   0.02849   0.02327  -0.0288  1.0000  0.0185  -7.9707   0.0000   0.0000   0.0000   0.2112
 -13.300  -1.2642   0.02768   0.02241  -0.0279  1.0000  0.0188  -7.9350   0.0000   0.0000   0.0000   0.2121
 -13.200  -1.2637   0.02699   0.02168  -0.0270  1.0000  0.0190  -7.8889   0.0000   0.0000   0.0000   0.2130
 -13.100  -1.2621   0.02640   0.02106  -0.0261  1.0000  0.0192  -7.8346   0.0000   0.0000   0.0000   0.2138
 -13.000  -1.2598   0.02588   0.02052  -0.0253  1.0000  0.0193  -7.7743   0.0000   0.0000   0.0000   0.2146
 -12.900  -1.2568   0.02543   0.02004  -0.0244  1.0000  0.0195  -7.7084   0.0000   0.0000   0.0000   0.2154
 -12.800  -1.2532   0.02501   0.01960  -0.0236  1.0000  0.0197  -7.6390   0.0000   0.0000   0.0000   0.2162
 -12.700  -1.2493   0.02464   0.01920  -0.0228  1.0000  0.0199  -7.5669   0.0000   0.0000   0.0000   0.2169
 -12.600  -1.2449   0.02430   0.01884  -0.0220  1.0000  0.0201  -7.4922   0.0000   0.0000   0.0000   0.2177
 -12.500  -1.2403   0.02398   0.01850  -0.0212  1.0000  0.0203  -7.4159   0.0000   0.0000   0.0000   0.2184
 -12.400  -1.2353   0.02368   0.01818  -0.0204  1.0000  0.0205  -7.3375   0.0000   0.0000   0.0000   0.2191
 -12.300  -1.2299   0.02340   0.01788  -0.0197  1.0000  0.0207  -7.2568   0.0000   0.0000   0.0000   0.2198
 -12.200  -1.2237   0.02312   0.01758  -0.0191  1.0000  0.0209  -7.1724   0.0000   0.0000   0.0000   0.2203
 -12.100  -1.2171   0.02285   0.01729  -0.0186  1.0000  0.0212  -7.0866   0.0000   0.0000   0.0000   0.2208
 -12.000  -1.2103   0.02258   0.01700  -0.0181  1.0000  0.0215  -7.0003   0.0000   0.0000   0.0000   0.2213
 -11.900  -1.2033   0.02232   0.01671  -0.0176  1.0000  0.0217  -6.9140   0.0000   0.0000   0.0000   0.2218
 -11.800  -1.1963   0.02206   0.01642  -0.0171  1.0000  0.0220  -6.8276   0.0000   0.0000   0.0000   0.2223
 -11.700  -1.1891   0.02180   0.01613  -0.0166  1.0000  0.0223  -6.7412   0.0000   0.0000   0.0000   0.2227
 -11.600  -1.1818   0.02155   0.01586  -0.0161  1.0000  0.0225  -6.6548   0.0000   0.0000   0.0000   0.2232
 -11.500  -1.1743   0.02130   0.01558  -0.0157  1.0000  0.0228  -6.5684   0.0000   0.0000   0.0000   0.2236
 -11.400  -1.1667   0.02106   0.01531  -0.0152  1.0000  0.0230  -6.4820   0.0000   0.0000   0.0000   0.2241
 -11.300  -1.1590   0.02083   0.01505  -0.0148  1.0000  0.0232  -6.3955   0.0000   0.0000   0.0000   0.2245
 -11.200  -1.1511   0.02060   0.01480  -0.0144  1.0000  0.0234  -6.3083   0.0000   0.0000   0.0000   0.2249
 -11.100  -1.1430   0.02039   0.01456  -0.0140  1.0000  0.0235  -6.2202   0.0000   0.0000   0.0000   0.2253
 -11.000  -1.1347   0.02020   0.01434  -0.0136  1.0000  0.0237  -6.1310   0.0000   0.0000   0.0000   0.2257
 -10.900  -1.1263   0.02001   0.01414  -0.0132  1.0000  0.0238  -6.0416   0.0000   0.0000   0.0000   0.2261
 -10.800  -1.1243   0.01921   0.01327  -0.0120  1.0000  0.0244  -6.0024   0.0000   0.0000   0.0000   0.2273
 -10.700  -1.1193   0.01870   0.01272  -0.0112  1.0000  0.0250  -5.9400   0.0000   0.0000   0.0000   0.2281
 -10.600  -1.1128   0.01832   0.01232  -0.0106  1.0000  0.0256  -5.8658   0.0000   0.0000   0.0000   0.2288
 -10.500  -1.1055   0.01802   0.01202  -0.0100  1.0000  0.0260  -5.7850   0.0000   0.0000   0.0000   0.2293
 -10.400  -1.0975   0.01777   0.01176  -0.0096  1.0000  0.0265  -5.7005   0.0000   0.0000   0.0000   0.2298
 -10.300  -1.0893   0.01755   0.01153  -0.0092  1.0000  0.0269  -5.6144   0.0000   0.0000   0.0000   0.2302
 -10.200  -1.0809   0.01735   0.01132  -0.0088  1.0000  0.0273  -5.5275   0.0000   0.0000   0.0000   0.2306
 -10.100  -1.0724   0.01716   0.01110  -0.0084  1.0000  0.0277  -5.4408   0.0000   0.0000   0.0000   0.2310
 -10.000  -1.0639   0.01697   0.01090  -0.0080  1.0000  0.0282  -5.3547   0.0000   0.0000   0.0000   0.2315
  -9.900  -1.0553   0.01678   0.01069  -0.0076  1.0000  0.0286  -5.2692   0.0000   0.0000   0.0000   0.2319
  -9.800  -1.0467   0.01660   0.01050  -0.0073  1.0000  0.0291  -5.1841   0.0000   0.0000   0.0000   0.2323
  -9.700  -1.0381   0.01642   0.01030  -0.0069  1.0000  0.0295  -5.1055   0.0000   0.0000   0.0000   0.2328
  -9.600  -1.0293   0.01625   0.01012  -0.0065  1.0000  0.0299  -5.0296   0.0000   0.0000   0.0000   0.2332
  -9.500  -1.0205   0.01610   0.00995  -0.0061  1.0000  0.0303  -4.9534   0.0000   0.0000   0.0000   0.2337
  -9.400  -1.0116   0.01596   0.00979  -0.0057  1.0000  0.0306  -4.8767   0.0000   0.0000   0.0000   0.2341
  -9.300  -1.0026   0.01583   0.00965  -0.0054  1.0000  0.0309  -4.7994   0.0000   0.0000   0.0000   0.2345
  -9.200  -0.9938   0.01568   0.00948  -0.0050  1.0000  0.0312  -4.7246   0.0000   0.0000   0.0000   0.2350
  -9.100  -0.9886   0.01521   0.00897  -0.0040  1.0000  0.0325  -4.6751   0.0000   0.0000   0.0000   0.2361
  -9.000  -0.9814   0.01492   0.00868  -0.0034  1.0000  0.0336  -4.6114   0.0000   0.0000   0.0000   0.2368
  -8.900  -0.9735   0.01471   0.00847  -0.0028  1.0000  0.0345  -4.5411   0.0000   0.0000   0.0000   0.2375
  -8.800  -0.9652   0.01454   0.00831  -0.0023  1.0000  0.0354  -4.4685   0.0000   0.0000   0.0000   0.2381
  -8.700  -0.9568   0.01439   0.00816  -0.0019  1.0000  0.0362  -4.3956   0.0000   0.0000   0.0000   0.2387
  -8.600  -0.9483   0.01425   0.00800  -0.0014  1.0000  0.0369  -4.3227   0.0000   0.0000   0.0000   0.2392
  -8.500  -0.9397   0.01411   0.00786  -0.0009  1.0000  0.0377  -4.2505   0.0000   0.0000   0.0000   0.2398
  -8.400  -0.9311   0.01398   0.00772  -0.0005  1.0000  0.0384  -4.1788   0.0000   0.0000   0.0000   0.2404
  -8.300  -0.9225   0.01386   0.00758  -0.0000  1.0000  0.0391  -4.1074   0.0000   0.0000   0.0000   0.2410
  -8.200  -0.9137   0.01375   0.00746   0.0004  1.0000  0.0396  -4.0357   0.0000   0.0000   0.0000   0.2416
  -8.100  -0.9049   0.01366   0.00735   0.0009  1.0000  0.0400  -3.9636   0.0000   0.0000   0.0000   0.2422
  -8.000  -0.8969   0.01347   0.00715   0.0015  1.0000  0.0409  -3.8984   0.0000   0.0000   0.0000   0.2430
  -7.900  -0.8901   0.01318   0.00685   0.0023  1.0000  0.0429  -3.8413   0.0000   0.0000   0.0000   0.2440
  -7.800  -0.8824   0.01297   0.00666   0.0029  1.0000  0.0446  -3.7770   0.0000   0.0000   0.0000   0.2448
  -7.700  -0.8743   0.01281   0.00651   0.0034  1.0000  0.0460  -3.7100   0.0000   0.0000   0.0000   0.2456
  -7.600  -0.8660   0.01267   0.00638   0.0039  1.0000  0.0473  -3.6425   0.0000   0.0000   0.0000   0.2463
  -7.500  -0.8576   0.01255   0.00626   0.0045  1.0000  0.0485  -3.5749   0.0000   0.0000   0.0000   0.2471
  -7.400  -0.8490   0.01245   0.00615   0.0049  1.0000  0.0497  -3.5069   0.0000   0.0000   0.0000   0.2478
  -7.300  -0.8403   0.01236   0.00605   0.0054  1.0000  0.0507  -3.4388   0.0000   0.0000   0.0000   0.2485
  -7.200  -0.8315   0.01229   0.00595   0.0059  1.0000  0.0515  -3.3703   0.0000   0.0000   0.0000   0.2492
  -7.100  -0.8235   0.01213   0.00579   0.0064  1.0000  0.0533  -3.3074   0.0000   0.0000   0.0000   0.2501
  -7.000  -0.8158   0.01192   0.00560   0.0071  1.0000  0.0567  -3.2474   0.0000   0.0000   0.0000   0.2511
  -6.900  -0.8078   0.01176   0.00547   0.0076  1.0000  0.0593  -3.1840   0.0000   0.0000   0.0000   0.2520
  -6.800  -0.7995   0.01164   0.00536   0.0082  1.0000  0.0615  -3.1209   0.0000   0.0000   0.0000   0.2528
  -6.700  -0.7910   0.01153   0.00526   0.0087  1.0000  0.0635  -3.0629   0.0000   0.0000   0.0000   0.2536
  -6.600  -0.7823   0.01145   0.00517   0.0091  1.0000  0.0650  -3.0046   0.0000   0.0000   0.0000   0.2544
  -6.500  -0.7735   0.01139   0.00509   0.0096  1.0000  0.0661  -2.9460   0.0000   0.0000   0.0000   0.2552
  -6.400  -0.7654   0.01122   0.00494   0.0101  1.0000  0.0705  -2.8927   0.0000   0.0000   0.0000   0.2562
  -6.300  -0.7572   0.01106   0.00482   0.0107  1.0000  0.0746  -2.8378   0.0000   0.0000   0.0000   0.2571
  -6.200  -0.7489   0.01094   0.00473   0.0111  1.0000  0.0780  -2.7821   0.0000   0.0000   0.0000   0.2580
  -6.100  -0.7402   0.01084   0.00464   0.0116  1.0000  0.0810  -2.7258   0.0000   0.0000   0.0000   0.2589
  -6.000  -0.7291   0.01076   0.00456   0.0115  0.9997  0.0834  -2.6627   0.0000   0.0000   0.0000   0.2591
  -5.900  -0.7153   0.01060   0.00442   0.0109  0.9990  0.0907  -2.5935   0.0000   0.0000   0.0000   0.2586
  -5.800  -0.7014   0.01043   0.00431   0.0102  0.9981  0.0974  -2.5241   0.0000   0.0000   0.0000   0.2580
  -5.700  -0.6872   0.01031   0.00421   0.0095  0.9972  0.1025  -2.4542   0.0000   0.0000   0.0000   0.2573
  -5.600  -0.6732   0.01018   0.00411   0.0088  0.9963  0.1102  -2.3856   0.0000   0.0000   0.0000   0.2567
  -5.500  -0.6592   0.01001   0.00401   0.0081  0.9953  0.1186  -2.3178   0.0000   0.0000   0.0000   0.2560
  -5.400  -0.6448   0.00990   0.00392   0.0073  0.9943  0.1248  -2.2491   0.0000   0.0000   0.0000   0.2551
  -5.300  -0.6305   0.00976   0.00382   0.0066  0.9934  0.1344  -2.1817   0.0000   0.0000   0.0000   0.2542
  -5.200  -0.6162   0.00961   0.00373   0.0058  0.9925  0.1438  -2.1182   0.0000   0.0000   0.0000   0.2533
  -5.100  -0.6015   0.00950   0.00365   0.0050  0.9916  0.1524  -2.0577   0.0000   0.0000   0.0000   0.2522
  -5.000  -0.5870   0.00933   0.00356   0.0042  0.9909  0.1650  -1.9982   0.0000   0.0000   0.0000   0.2511
  -4.900  -0.5721   0.00923   0.00347   0.0033  0.9902  0.1744  -1.9380   0.0000   0.0000   0.0000   0.2498
  -4.800  -0.5578   0.00906   0.00338   0.0025  0.9894  0.1880  -1.8801   0.0000   0.0000   0.0000   0.2486
  -4.700  -0.5455   0.00895   0.00330   0.0022  0.9877  0.1972  -1.8268   0.0000   0.0000   0.0000   0.2483
  -4.600  -0.5328   0.00880   0.00322   0.0019  0.9860  0.2092  -1.7732   0.0000   0.0000   0.0000   0.2477
  -4.500  -0.5194   0.00868   0.00314   0.0013  0.9843  0.2205  -1.7187   0.0000   0.0000   0.0000   0.2468
  -4.400  -0.5059   0.00854   0.00307   0.0008  0.9827  0.2335  -1.6644   0.0000   0.0000   0.0000   0.2459
  -4.300  -0.4920   0.00842   0.00300   0.0002  0.9812  0.2463  -1.6097   0.0000   0.0000   0.0000   0.2447
  -4.200  -0.4780   0.00828   0.00292  -0.0005  0.9797  0.2599  -1.5581   0.0000   0.0000   0.0000   0.2433
  -4.100  -0.4635   0.00816   0.00286  -0.0013  0.9784  0.2724  -1.5086   0.0000   0.0000   0.0000   0.2417
  -4.000  -0.4489   0.00803   0.00279  -0.0021  0.9771  0.2853  -1.4597   0.0000   0.0000   0.0000   0.2399
  -3.900  -0.4343   0.00792   0.00271  -0.0029  0.9759  0.2984  -1.4109   0.0000   0.0000   0.0000   0.2379
  -3.800  -0.4200   0.00779   0.00265  -0.0036  0.9745  0.3125  -1.3632   0.0000   0.0000   0.0000   0.2360
  -3.700  -0.4055   0.00769   0.00259  -0.0043  0.9730  0.3257  -1.3157   0.0000   0.0000   0.0000   0.2340
  -3.600  -0.3913   0.00756   0.00253  -0.0050  0.9716  0.3393  -1.2690   0.0000   0.0000   0.0000   0.2318
  -3.500  -0.3767   0.00747   0.00247  -0.0057  0.9701  0.3515  -1.2241   0.0000   0.0000   0.0000   0.2294
  -3.400  -0.3664   0.00736   0.00242  -0.0055  0.9667  0.3633  -1.1893   0.0000   0.0000   0.0000   0.2296
  -3.300  -0.3556   0.00727   0.00237  -0.0054  0.9630  0.3758  -1.1539   0.0000   0.0000   0.0000   0.2295
  -3.200  -0.3441   0.00717   0.00232  -0.0054  0.9594  0.3877  -1.1177   0.0000   0.0000   0.0000   0.2289
  -3.100  -0.3323   0.00707   0.00226  -0.0055  0.9560  0.4002  -1.0813   0.0000   0.0000   0.0000   0.2281
  -3.000  -0.3198   0.00699   0.00221  -0.0058  0.9528  0.4110  -1.0441   0.0000   0.0000   0.0000   0.2267
  -2.900  -0.3073   0.00688   0.00216  -0.0060  0.9498  0.4243  -1.0093   0.0000   0.0000   0.0000   0.2253
  -2.800  -0.2947   0.00681   0.00211  -0.0063  0.9466  0.4360  -0.9763   0.0000   0.0000   0.0000   0.2235
  -2.700  -0.2850   0.00672   0.00207  -0.0059  0.9419  0.4482  -0.9476   0.0000   0.0000   0.0000   0.2241
  -2.600  -0.2746   0.00666   0.00203  -0.0057  0.9369  0.4586  -0.9182   0.0000   0.0000   0.0000   0.2243
  -2.500  -0.2640   0.00657   0.00199  -0.0055  0.9319  0.4700  -0.8886   0.0000   0.0000   0.0000   0.2242
  -2.400  -0.2529   0.00650   0.00195  -0.0054  0.9270  0.4821  -0.8600   0.0000   0.0000   0.0000   0.2237
  -2.300  -0.2418   0.00643   0.00190  -0.0053  0.9223  0.4934  -0.8333   0.0000   0.0000   0.0000   0.2232
  -2.200  -0.2313   0.00636   0.00187  -0.0051  0.9172  0.5053  -0.8076   0.0000   0.0000   0.0000   0.2232
  -2.100  -0.2208   0.00631   0.00184  -0.0048  0.9113  0.5152  -0.7820   0.0000   0.0000   0.0000   0.2231
  -2.000  -0.2105   0.00623   0.00180  -0.0046  0.9051  0.5270  -0.7569   0.0000   0.0000   0.0000   0.2234
  -1.900  -0.1998   0.00618   0.00177  -0.0044  0.8989  0.5384  -0.7339   0.0000   0.0000   0.0000   0.2233
  -1.800  -0.1893   0.00612   0.00173  -0.0041  0.8929  0.5496  -0.7116   0.0000   0.0000   0.0000   0.2234
  -1.700  -0.1788   0.00607   0.00171  -0.0039  0.8864  0.5609  -0.6894   0.0000   0.0000   0.0000   0.2233
  -1.600  -0.1681   0.00603   0.00168  -0.0037  0.8793  0.5711  -0.6672   0.0000   0.0000   0.0000   0.2231
  -1.500  -0.1578   0.00597   0.00164  -0.0034  0.8720  0.5828  -0.6476   0.0000   0.0000   0.0000   0.2235
  -1.400  -0.1472   0.00595   0.00162  -0.0032  0.8651  0.5937  -0.6280   0.0000   0.0000   0.0000   0.2234
  -1.300  -0.1367   0.00589   0.00160  -0.0030  0.8576  0.6046  -0.6088   0.0000   0.0000   0.0000   0.2234
  -1.200  -0.1262   0.00585   0.00158  -0.0028  0.8494  0.6157  -0.5897   0.0000   0.0000   0.0000   0.2234
  -1.100  -0.1157   0.00584   0.00155  -0.0025  0.8414  0.6257  -0.5729   0.0000   0.0000   0.0000   0.2236
  -1.000  -0.1052   0.00579   0.00154  -0.0023  0.8338  0.6372  -0.5561   0.0000   0.0000   0.0000   0.2236
  -0.900  -0.0945   0.00577   0.00152  -0.0021  0.8250  0.6479  -0.5392   0.0000   0.0000   0.0000   0.2231
  -0.800  -0.0842   0.00574   0.00150  -0.0018  0.8160  0.6583  -0.5232   0.0000   0.0000   0.0000   0.2240
  -0.700  -0.0737   0.00572   0.00149  -0.0016  0.8078  0.6693  -0.5085   0.0000   0.0000   0.0000   0.2237
  -0.600  -0.0629   0.00571   0.00148  -0.0014  0.7986  0.6792  -0.4938   0.0000   0.0000   0.0000   0.2228
  -0.500  -0.0527   0.00569   0.00147  -0.0011  0.7891  0.6902  -0.4795   0.0000   0.0000   0.0000   0.2243
  -0.400  -0.0420   0.00568   0.00146  -0.0009  0.7803  0.7008  -0.4654   0.0000   0.0000   0.0000   0.2233
  -0.300  -0.0315   0.00566   0.00145  -0.0007  0.7705  0.7105  -0.4526   0.0000   0.0000   0.0000   0.2230
  -0.200  -0.0212   0.00566   0.00145  -0.0004  0.7605  0.7212  -0.4399   0.0000   0.0000   0.0000   0.2258
  -0.100  -0.0103   0.00567   0.00144  -0.0003  0.7515  0.7309  -0.4270   0.0000   0.0000   0.0000   0.2186
   0.000  -0.0000   0.00565   0.00145   0.0000  0.7411  0.7411  -0.4148   0.0000   0.0000   0.0000   0.5131
   0.100   0.0103   0.00567   0.00144   0.0003  0.7309  0.7515  -0.4270   0.0000   0.0000   0.0000   0.2186
   0.200   0.0212   0.00566   0.00145   0.0004  0.7212  0.7605  -0.4399   0.0000   0.0000   0.0000   0.2258
   0.300   0.0315   0.00566   0.00145   0.0007  0.7105  0.7705  -0.4526   0.0000   0.0000   0.0000   0.2230
   0.400   0.0420   0.00568   0.00146   0.0009  0.7008  0.7803  -0.4654   0.0000   0.0000   0.0000   0.2233
   0.500   0.0527   0.00569   0.00147   0.0011  0.6902  0.7891  -0.4795   0.0000   0.0000   0.0000   0.2243
   0.600   0.0629   0.00571   0.00148   0.0014  0.6792  0.7986  -0.4938   0.0000   0.0000   0.0000   0.2228
   0.700   0.0737   0.00572   0.00149   0.0016  0.6693  0.8078  -0.5085   0.0000   0.0000   0.0000   0.2237
   0.800   0.0842   0.00574   0.00150   0.0018  0.6583  0.8160  -0.5232   0.0000   0.0000   0.0000   0.2240
   0.900   0.0945   0.00577   0.00152   0.0021  0.6479  0.8250  -0.5392   0.0000   0.0000   0.0000   0.2231
   1.000   0.1052   0.00579   0.00154   0.0023  0.6372  0.8338  -0.5561   0.0000   0.0000   0.0000   0.2236
   1.100   0.1157   0.00584   0.00155   0.0025  0.6257  0.8414  -0.5729   0.0000   0.0000   0.0000   0.2236
   1.200   0.1262   0.00585   0.00158   0.0028  0.6157  0.8494  -0.5897   0.0000   0.0000   0.0000   0.2234
   1.300   0.1367   0.00589   0.00160   0.0030  0.6046  0.8576  -0.6089   0.0000   0.0000   0.0000   0.2234
   1.400   0.1472   0.00595   0.00162   0.0032  0.5937  0.8651  -0.6280   0.0000   0.0000   0.0000   0.2234
   1.500   0.1579   0.00597   0.00164   0.0034  0.5828  0.8720  -0.6476   0.0000   0.0000   0.0000   0.2236
   1.600   0.1681   0.00603   0.00168   0.0037  0.5711  0.8793  -0.6672   0.0000   0.0000   0.0000   0.2231
   1.700   0.1788   0.00607   0.00171   0.0039  0.5609  0.8864  -0.6894   0.0000   0.0000   0.0000   0.2233
   1.800   0.1893   0.00612   0.00173   0.0041  0.5496  0.8929  -0.7116   0.0000   0.0000   0.0000   0.2234
   1.900   0.1998   0.00618   0.00177   0.0044  0.5384  0.8989  -0.7339   0.0000   0.0000   0.0000   0.2233
   2.000   0.2105   0.00623   0.00180   0.0046  0.5270  0.9051  -0.7569   0.0000   0.0000   0.0000   0.2234
   2.100   0.2208   0.00631   0.00184   0.0048  0.5152  0.9113  -0.7820   0.0000   0.0000   0.0000   0.2231
   2.200   0.2313   0.00636   0.00187   0.0051  0.5053  0.9172  -0.8076   0.0000   0.0000   0.0000   0.2232
   2.300   0.2418   0.00643   0.00190   0.0053  0.4934  0.9223  -0.8333   0.0000   0.0000   0.0000   0.2232
   2.400   0.2529   0.00650   0.00195   0.0054  0.4821  0.9271  -0.8600   0.0000   0.0000   0.0000   0.2237
   2.500   0.2640   0.00657   0.00199   0.0055  0.4700  0.9319  -0.8886   0.0000   0.0000   0.0000   0.2242
   2.600   0.2746   0.00666   0.00203   0.0057  0.4586  0.9369  -0.9182   0.0000   0.0000   0.0000   0.2243
   2.700   0.2850   0.00672   0.00207   0.0059  0.4482  0.9420  -0.9476   0.0000   0.0000   0.0000   0.2241
   2.800   0.2947   0.00681   0.00211   0.0063  0.4360  0.9466  -0.9763   0.0000   0.0000   0.0000   0.2236
   2.900   0.3073   0.00688   0.00216   0.0060  0.4243  0.9498  -1.0094   0.0000   0.0000   0.0000   0.2253
   3.000   0.3198   0.00699   0.00221   0.0058  0.4110  0.9529  -1.0442   0.0000   0.0000   0.0000   0.2268
   3.100   0.3323   0.00707   0.00226   0.0055  0.4002  0.9560  -1.0813   0.0000   0.0000   0.0000   0.2281
   3.200   0.3441   0.00717   0.00231   0.0054  0.3877  0.9594  -1.1177   0.0000   0.0000   0.0000   0.2289
   3.300   0.3555   0.00727   0.00237   0.0054  0.3758  0.9630  -1.1539   0.0000   0.0000   0.0000   0.2295
   3.400   0.3664   0.00736   0.00242   0.0055  0.3633  0.9668  -1.1893   0.0000   0.0000   0.0000   0.2296
   3.500   0.3767   0.00747   0.00247   0.0057  0.3515  0.9702  -1.2241   0.0000   0.0000   0.0000   0.2294
   3.600   0.3913   0.00756   0.00252   0.0050  0.3393  0.9716  -1.2690   0.0000   0.0000   0.0000   0.2319
   3.700   0.4055   0.00769   0.00259   0.0043  0.3257  0.9731  -1.3157   0.0000   0.0000   0.0000   0.2340
   3.800   0.4200   0.00779   0.00265   0.0036  0.3125  0.9745  -1.3632   0.0000   0.0000   0.0000   0.2360
   3.900   0.4343   0.00792   0.00271   0.0028  0.2984  0.9759  -1.4109   0.0000   0.0000   0.0000   0.2380
   4.000   0.4489   0.00803   0.00278   0.0021  0.2853  0.9771  -1.4597   0.0000   0.0000   0.0000   0.2399
   4.100   0.4635   0.00816   0.00286   0.0013  0.2724  0.9784  -1.5087   0.0000   0.0000   0.0000   0.2417
   4.200   0.4780   0.00828   0.00292   0.0005  0.2599  0.9797  -1.5581   0.0000   0.0000   0.0000   0.2433
   4.300   0.4921   0.00842   0.00300  -0.0002  0.2463  0.9812  -1.6097   0.0000   0.0000   0.0000   0.2447
   4.400   0.5059   0.00854   0.00306  -0.0008  0.2335  0.9827  -1.6644   0.0000   0.0000   0.0000   0.2459
   4.500   0.5194   0.00868   0.00314  -0.0013  0.2205  0.9843  -1.7187   0.0000   0.0000   0.0000   0.2468
   4.600   0.5327   0.00880   0.00322  -0.0019  0.2093  0.9860  -1.7732   0.0000   0.0000   0.0000   0.2477
   4.700   0.5455   0.00895   0.00330  -0.0022  0.1972  0.9878  -1.8268   0.0000   0.0000   0.0000   0.2483
   4.800   0.5578   0.00906   0.00338  -0.0025  0.1880  0.9894  -1.8800   0.0000   0.0000   0.0000   0.2486
   4.900   0.5721   0.00923   0.00347  -0.0033  0.1744  0.9902  -1.9381   0.0000   0.0000   0.0000   0.2498
   5.000   0.5871   0.00933   0.00356  -0.0042  0.1649  0.9909  -1.9983   0.0000   0.0000   0.0000   0.2511
   5.100   0.6016   0.00950   0.00365  -0.0050  0.1524  0.9917  -2.0578   0.0000   0.0000   0.0000   0.2523
   5.200   0.6163   0.00961   0.00373  -0.0058  0.1438  0.9925  -2.1184   0.0000   0.0000   0.0000   0.2533
   5.300   0.6306   0.00976   0.00382  -0.0066  0.1344  0.9934  -2.1819   0.0000   0.0000   0.0000   0.2543
   5.400   0.6449   0.00990   0.00391  -0.0073  0.1248  0.9944  -2.2493   0.0000   0.0000   0.0000   0.2551
   5.500   0.6593   0.01001   0.00400  -0.0081  0.1186  0.9953  -2.3179   0.0000   0.0000   0.0000   0.2560
   5.600   0.6732   0.01018   0.00411  -0.0088  0.1102  0.9963  -2.3858   0.0000   0.0000   0.0000   0.2567
   5.700   0.6873   0.01031   0.00421  -0.0095  0.1025  0.9973  -2.4543   0.0000   0.0000   0.0000   0.2574
   5.800   0.7015   0.01043   0.00430  -0.0102  0.0973  0.9982  -2.5243   0.0000   0.0000   0.0000   0.2580
   5.900   0.7153   0.01060   0.00442  -0.0109  0.0907  0.9990  -2.5937   0.0000   0.0000   0.0000   0.2586
   6.000   0.7292   0.01076   0.00456  -0.0116  0.0834  0.9998  -2.6629   0.0000   0.0000   0.0000   0.2592
   6.100   0.7400   0.01084   0.00464  -0.0116  0.0810  1.0000  -2.7253   0.0000   0.0000   0.0000   0.2588
   6.200   0.7487   0.01093   0.00472  -0.0111  0.0781  1.0000  -2.7815   0.0000   0.0000   0.0000   0.2580
   6.300   0.7571   0.01106   0.00482  -0.0106  0.0747  1.0000  -2.8373   0.0000   0.0000   0.0000   0.2571
   6.400   0.7652   0.01122   0.00494  -0.0101  0.0705  1.0000  -2.8921   0.0000   0.0000   0.0000   0.2561
   6.500   0.7733   0.01138   0.00509  -0.0095  0.0661  1.0000  -2.9454   0.0000   0.0000   0.0000   0.2552
   6.600   0.7821   0.01145   0.00517  -0.0091  0.0651  1.0000  -3.0041   0.0000   0.0000   0.0000   0.2544
   6.700   0.7908   0.01153   0.00526  -0.0086  0.0635  1.0000  -3.0624   0.0000   0.0000   0.0000   0.2536
   6.800   0.7993   0.01163   0.00536  -0.0081  0.0615  1.0000  -3.1203   0.0000   0.0000   0.0000   0.2528
   6.900   0.8076   0.01176   0.00547  -0.0076  0.0593  1.0000  -3.1834   0.0000   0.0000   0.0000   0.2519
   7.000   0.8157   0.01192   0.00560  -0.0071  0.0567  1.0000  -3.2469   0.0000   0.0000   0.0000   0.2510
   7.100   0.8233   0.01213   0.00579  -0.0064  0.0534  1.0000  -3.3070   0.0000   0.0000   0.0000   0.2501
   7.200   0.8314   0.01228   0.00595  -0.0058  0.0515  1.0000  -3.3697   0.0000   0.0000   0.0000   0.2492
   7.300   0.8402   0.01236   0.00604  -0.0054  0.0507  1.0000  -3.4383   0.0000   0.0000   0.0000   0.2485
   7.400   0.8488   0.01245   0.00614  -0.0049  0.0497  1.0000  -3.5064   0.0000   0.0000   0.0000   0.2478
   7.500   0.8574   0.01255   0.00625  -0.0044  0.0486  1.0000  -3.5744   0.0000   0.0000   0.0000   0.2471
   7.600   0.8658   0.01267   0.00638  -0.0039  0.0473  1.0000  -3.6420   0.0000   0.0000   0.0000   0.2463
   7.700   0.8741   0.01281   0.00651  -0.0034  0.0460  1.0000  -3.7095   0.0000   0.0000   0.0000   0.2456
   7.800   0.8822   0.01297   0.00665  -0.0028  0.0446  1.0000  -3.7765   0.0000   0.0000   0.0000   0.2448
   7.900   0.8900   0.01317   0.00684  -0.0022  0.0429  1.0000  -3.8409   0.0000   0.0000   0.0000   0.2440
   8.000   0.8968   0.01347   0.00715  -0.0014  0.0409  1.0000  -3.8981   0.0000   0.0000   0.0000   0.2430
   8.100   0.9047   0.01365   0.00735  -0.0009  0.0400  1.0000  -3.9633   0.0000   0.0000   0.0000   0.2422
   8.200   0.9136   0.01375   0.00746  -0.0004  0.0396  1.0000  -4.0353   0.0000   0.0000   0.0000   0.2416
   8.300   0.9224   0.01386   0.00758   0.0000  0.0391  1.0000  -4.1071   0.0000   0.0000   0.0000   0.2410
   8.400   0.9310   0.01398   0.00772   0.0005  0.0384  1.0000  -4.1785   0.0000   0.0000   0.0000   0.2404
   8.500   0.9396   0.01411   0.00786   0.0009  0.0377  1.0000  -4.2502   0.0000   0.0000   0.0000   0.2398
   8.600   0.9482   0.01425   0.00800   0.0014  0.0369  1.0000  -4.3225   0.0000   0.0000   0.0000   0.2392
   8.700   0.9568   0.01439   0.00816   0.0019  0.0362  1.0000  -4.3954   0.0000   0.0000   0.0000   0.2386
   8.800   0.9652   0.01454   0.00831   0.0023  0.0354  1.0000  -4.4683   0.0000   0.0000   0.0000   0.2381
   8.900   0.9735   0.01471   0.00847   0.0028  0.0345  1.0000  -4.5409   0.0000   0.0000   0.0000   0.2375
   9.000   0.9814   0.01492   0.00867   0.0034  0.0336  1.0000  -4.6113   0.0000   0.0000   0.0000   0.2368
   9.100   0.9886   0.01521   0.00897   0.0040  0.0325  1.0000  -4.6750   0.0000   0.0000   0.0000   0.2361
   9.200   0.9939   0.01568   0.00948   0.0050  0.0312  1.0000  -4.7246   0.0000   0.0000   0.0000   0.2350
   9.300   1.0026   0.01583   0.00965   0.0054  0.0309  1.0000  -4.7996   0.0000   0.0000   0.0000   0.2345
   9.400   1.0117   0.01596   0.00979   0.0057  0.0306  1.0000  -4.8769   0.0000   0.0000   0.0000   0.2341
   9.500   1.0206   0.01610   0.00994   0.0061  0.0303  1.0000  -4.9536   0.0000   0.0000   0.0000   0.2337
   9.600   1.0294   0.01625   0.01012   0.0065  0.0299  1.0000  -5.0299   0.0000   0.0000   0.0000   0.2332
   9.700   1.0381   0.01642   0.01030   0.0068  0.0295  1.0000  -5.1059   0.0000   0.0000   0.0000   0.2328
   9.800   1.0468   0.01659   0.01049   0.0072  0.0291  1.0000  -5.1846   0.0000   0.0000   0.0000   0.2324
   9.900   1.0554   0.01678   0.01069   0.0076  0.0286  1.0000  -5.2698   0.0000   0.0000   0.0000   0.2319
  10.000   1.0640   0.01696   0.01090   0.0080  0.0282  1.0000  -5.3553   0.0000   0.0000   0.0000   0.2315
  10.100   1.0726   0.01716   0.01110   0.0084  0.0277  1.0000  -5.4415   0.0000   0.0000   0.0000   0.2311
  10.200   1.0811   0.01735   0.01132   0.0088  0.0273  1.0000  -5.5283   0.0000   0.0000   0.0000   0.2307
  10.300   1.0895   0.01755   0.01153   0.0092  0.0269  1.0000  -5.6152   0.0000   0.0000   0.0000   0.2302
  10.400   1.0977   0.01777   0.01176   0.0096  0.0265  1.0000  -5.7014   0.0000   0.0000   0.0000   0.2298
  10.500   1.1057   0.01802   0.01202   0.0100  0.0260  1.0000  -5.7859   0.0000   0.0000   0.0000   0.2293
  10.600   1.1131   0.01832   0.01232   0.0105  0.0255  1.0000  -5.8668   0.0000   0.0000   0.0000   0.2288
  10.700   1.1196   0.01870   0.01272   0.0111  0.0250  1.0000  -5.9410   0.0000   0.0000   0.0000   0.2282
  10.800   1.1245   0.01922   0.01328   0.0120  0.0244  1.0000  -6.0033   0.0000   0.0000   0.0000   0.2273
  10.900   1.1266   0.02002   0.01414   0.0132  0.0238  1.0000  -6.0426   0.0000   0.0000   0.0000   0.2261
  11.000   1.1351   0.02019   0.01434   0.0135  0.0237  1.0000  -6.1327   0.0000   0.0000   0.0000   0.2258
  11.100   1.1434   0.02039   0.01456   0.0139  0.0235  1.0000  -6.2219   0.0000   0.0000   0.0000   0.2254
  11.200   1.1515   0.02060   0.01479   0.0143  0.0234  1.0000  -6.3102   0.0000   0.0000   0.0000   0.2250
  11.300   1.1594   0.02083   0.01505   0.0147  0.0232  1.0000  -6.3974   0.0000   0.0000   0.0000   0.2246
  11.400   1.1671   0.02106   0.01531   0.0151  0.0230  1.0000  -6.4841   0.0000   0.0000   0.0000   0.2242
  11.500   1.1748   0.02130   0.01558   0.0156  0.0228  1.0000  -6.5706   0.0000   0.0000   0.0000   0.2237
  11.600   1.1822   0.02155   0.01586   0.0160  0.0225  1.0000  -6.6572   0.0000   0.0000   0.0000   0.2233
  11.700   1.1896   0.02180   0.01613   0.0165  0.0223  1.0000  -6.7437   0.0000   0.0000   0.0000   0.2228
  11.800   1.1968   0.02206   0.01642   0.0170  0.0220  1.0000  -6.8303   0.0000   0.0000   0.0000   0.2224
  11.900   1.2039   0.02232   0.01671   0.0175  0.0217  1.0000  -6.9168   0.0000   0.0000   0.0000   0.2219
  12.000   1.2109   0.02258   0.01700   0.0180  0.0214  1.0000  -7.0033   0.0000   0.0000   0.0000   0.2214
  12.100   1.2177   0.02285   0.01728   0.0185  0.0212  1.0000  -7.0898   0.0000   0.0000   0.0000   0.2209
  12.200   1.2243   0.02312   0.01758   0.0190  0.0209  1.0000  -7.1759   0.0000   0.0000   0.0000   0.2204
  12.300   1.2307   0.02340   0.01788   0.0196  0.0207  1.0000  -7.2607   0.0000   0.0000   0.0000   0.2199
  12.400   1.2362   0.02368   0.01818   0.0202  0.0205  1.0000  -7.3419   0.0000   0.0000   0.0000   0.2193
  12.500   1.2412   0.02398   0.01850   0.0210  0.0203  1.0000  -7.4206   0.0000   0.0000   0.0000   0.2186
  12.600   1.2459   0.02430   0.01884   0.0218  0.0201  1.0000  -7.4970   0.0000   0.0000   0.0000   0.2178
  12.700   1.2503   0.02464   0.01921   0.0226  0.0199  1.0000  -7.5720   0.0000   0.0000   0.0000   0.2171
  12.800   1.2543   0.02502   0.01960   0.0234  0.0197  1.0000  -7.6443   0.0000   0.0000   0.0000   0.2163
  12.900   1.2578   0.02543   0.02004   0.0242  0.0195  1.0000  -7.7137   0.0000   0.0000   0.0000   0.2156
  13.000   1.2609   0.02589   0.02052   0.0251  0.0193  1.0000  -7.7796   0.0000   0.0000   0.0000   0.2148
  13.100   1.2632   0.02641   0.02107   0.0259  0.0191  1.0000  -7.8399   0.0000   0.0000   0.0000   0.2140
  13.200   1.2647   0.02700   0.02170   0.0268  0.0189  1.0000  -7.8940   0.0000   0.0000   0.0000   0.2132
  13.300   1.2652   0.02770   0.02243   0.0277  0.0187  1.0000  -7.9397   0.0000   0.0000   0.0000   0.2123
  13.400   1.2644   0.02852   0.02330   0.0286  0.0185  1.0000  -7.9748   0.0000   0.0000   0.0000   0.2114
  13.500   1.2620   0.02950   0.02435   0.0296  0.0183  1.0000  -7.9965   0.0000   0.0000   0.0000   0.2104
  13.600   1.2577   0.03070   0.02563   0.0305  0.0181  1.0000  -8.0018   0.0000   0.0000   0.0000   0.2094
  13.700   1.2528   0.03203   0.02704   0.0314  0.0179  1.0000  -8.0001   0.0000   0.0000   0.0000   0.2084
  13.800   1.2561   0.03259   0.02763   0.0317  0.0179  1.0000  -8.0670   0.0000   0.0000   0.0000   0.2080
  13.900   1.2593   0.03318   0.02826   0.0320  0.0178  1.0000  -8.1324   0.0000   0.0000   0.0000   0.2077
  14.000   1.2621   0.03382   0.02895   0.0322  0.0178  1.0000  -8.1953   0.0000   0.0000   0.0000   0.2073
  14.100   1.2648   0.03450   0.02967   0.0324  0.0177  1.0000  -8.2566   0.0000   0.0000   0.0000   0.2070
  14.200   1.2671   0.03523   0.03044   0.0326  0.0176  1.0000  -8.3151   0.0000   0.0000   0.0000   0.2068
  14.300   1.2692   0.03601   0.03126   0.0327  0.0176  1.0000  -8.3719   0.0000   0.0000   0.0000   0.2065
  14.400   1.2709   0.03685   0.03215   0.0328  0.0175  1.0000  -8.4255   0.0000   0.0000   0.0000   0.2063
  14.500   1.2724   0.03773   0.03309   0.0328  0.0174  1.0000  -8.4771   0.0000   0.0000   0.0000   0.2061
  14.600   1.2733   0.03868   0.03409   0.0328  0.0173  1.0000  -8.5248   0.0000   0.0000   0.0000   0.2060
  14.700   1.2741   0.03968   0.03513   0.0327  0.0173  1.0000  -8.5706   0.0000   0.0000   0.0000   0.2058
  14.800   1.2745   0.04075   0.03625   0.0325  0.0172  1.0000  -8.6130   0.0000   0.0000   0.0000   0.2058
  14.900   1.2746   0.04187   0.03743   0.0323  0.0171  1.0000  -8.6534   0.0000   0.0000   0.0000   0.2057
  15.000   1.2745   0.04307   0.03867   0.0320  0.0170  1.0000  -8.6908   0.0000   0.0000   0.0000   0.2057


