xflr5 v6.61

 Calculated polar for: NACA 0012

 1 1 Reynolds number fixed          Mach number fixed         

 xtrf =   1.000 (top)        1.000 (bottom)
 Mach =   0.000     Re =     1.200 e 6     Ncrit =   9.000

  alpha     CL        CD       CDp       Cm    Top Xtr Bot Xtr   Cpmin    Chinge    XCp    
 ------- -------- --------- --------- -------- ------- ------- -------- --------- ---------
 -15.000  -1.3914   0.03043   0.02592  -0.0310  1.0000  0.0130  -9.7319   0.0000   0.0000   0.0000   0.2089
 -14.900  -1.3883   0.02985   0.02531  -0.0306  1.0000  0.0131  -9.6584   0.0000   0.0000   0.0000   0.2092
 -14.800  -1.3850   0.02930   0.02472  -0.0303  1.0000  0.0131  -9.5840   0.0000   0.0000   0.0000   0.2096
 -14.700  -1.3814   0.02877   0.02417  -0.0299  1.0000  0.0131  -9.5070   0.0000   0.0000   0.0000   0.2100
 -14.600  -1.3815   0.02797   0.02332  -0.0293  1.0000  0.0132  -9.4610   0.0000   0.0000   0.0000   0.2107
 -14.500  -1.3863   0.02687   0.02213  -0.0283  1.0000  0.0134  -9.4536   0.0000   0.0000   0.0000   0.2117
 -14.400  -1.3892   0.02595   0.02115  -0.0272  1.0000  0.0135  -9.4303   0.0000   0.0000   0.0000   0.2127
 -14.300  -1.3905   0.02518   0.02033  -0.0262  1.0000  0.0137  -9.3935   0.0000   0.0000   0.0000   0.2137
 -14.200  -1.3903   0.02453   0.01963  -0.0251  1.0000  0.0139  -9.3454   0.0000   0.0000   0.0000   0.2146
 -14.100  -1.3892   0.02397   0.01903  -0.0241  1.0000  0.0141  -9.2889   0.0000   0.0000   0.0000   0.2155
 -14.000  -1.3869   0.02349   0.01851  -0.0232  1.0000  0.0143  -9.2238   0.0000   0.0000   0.0000   0.2163
 -13.900  -1.3839   0.02306   0.01806  -0.0223  1.0000  0.0144  -9.1526   0.0000   0.0000   0.0000   0.2171
 -13.800  -1.3803   0.02268   0.01765  -0.0214  1.0000  0.0146  -9.0770   0.0000   0.0000   0.0000   0.2179
 -13.700  -1.3762   0.02234   0.01729  -0.0205  1.0000  0.0148  -8.9973   0.0000   0.0000   0.0000   0.2186
 -13.600  -1.3717   0.02203   0.01696  -0.0197  1.0000  0.0149  -8.9149   0.0000   0.0000   0.0000   0.2193
 -13.500  -1.3669   0.02173   0.01665  -0.0189  1.0000  0.0151  -8.8301   0.0000   0.0000   0.0000   0.2200
 -13.400  -1.3616   0.02146   0.01635  -0.0181  1.0000  0.0152  -8.7428   0.0000   0.0000   0.0000   0.2207
 -13.300  -1.3555   0.02119   0.01606  -0.0175  1.0000  0.0154  -8.6512   0.0000   0.0000   0.0000   0.2213
 -13.200  -1.3489   0.02093   0.01578  -0.0170  1.0000  0.0155  -8.5570   0.0000   0.0000   0.0000   0.2218
 -13.100  -1.3420   0.02067   0.01551  -0.0165  1.0000  0.0157  -8.4616   0.0000   0.0000   0.0000   0.2222
 -13.000  -1.3349   0.02043   0.01525  -0.0160  1.0000  0.0158  -8.3657   0.0000   0.0000   0.0000   0.2227
 -12.900  -1.3277   0.02018   0.01499  -0.0155  1.0000  0.0160  -8.2695   0.0000   0.0000   0.0000   0.2232
 -12.800  -1.3204   0.01994   0.01473  -0.0150  1.0000  0.0162  -8.1731   0.0000   0.0000   0.0000   0.2236
 -12.700  -1.3130   0.01971   0.01448  -0.0146  1.0000  0.0163  -8.0766   0.0000   0.0000   0.0000   0.2240
 -12.600  -1.3054   0.01948   0.01423  -0.0141  1.0000  0.0165  -7.9799   0.0000   0.0000   0.0000   0.2245
 -12.500  -1.2977   0.01925   0.01398  -0.0137  1.0000  0.0166  -7.8829   0.0000   0.0000   0.0000   0.2249
 -12.400  -1.2898   0.01903   0.01374  -0.0133  1.0000  0.0168  -7.7858   0.0000   0.0000   0.0000   0.2253
 -12.300  -1.2819   0.01882   0.01351  -0.0129  1.0000  0.0170  -7.6885   0.0000   0.0000   0.0000   0.2257
 -12.200  -1.2738   0.01861   0.01328  -0.0125  1.0000  0.0171  -7.5909   0.0000   0.0000   0.0000   0.2261
 -12.100  -1.2656   0.01841   0.01306  -0.0121  1.0000  0.0172  -7.4929   0.0000   0.0000   0.0000   0.2265
 -12.000  -1.2573   0.01821   0.01285  -0.0118  1.0000  0.0174  -7.3947   0.0000   0.0000   0.0000   0.2269
 -11.900  -1.2488   0.01803   0.01264  -0.0114  1.0000  0.0175  -7.2960   0.0000   0.0000   0.0000   0.2272
 -11.800  -1.2402   0.01785   0.01245  -0.0111  1.0000  0.0176  -7.1971   0.0000   0.0000   0.0000   0.2276
 -11.700  -1.2315   0.01768   0.01226  -0.0108  1.0000  0.0177  -7.0978   0.0000   0.0000   0.0000   0.2279
 -11.600  -1.2227   0.01752   0.01208  -0.0105  1.0000  0.0178  -6.9983   0.0000   0.0000   0.0000   0.2283
 -11.500  -1.2137   0.01737   0.01192  -0.0102  1.0000  0.0179  -6.8978   0.0000   0.0000   0.0000   0.2286
 -11.400  -1.2060   0.01711   0.01163  -0.0097  1.0000  0.0181  -6.8087   0.0000   0.0000   0.0000   0.2290
 -11.300  -1.2004   0.01664   0.01111  -0.0090  1.0000  0.0187  -6.7395   0.0000   0.0000   0.0000   0.2298
 -11.200  -1.1932   0.01631   0.01075  -0.0084  1.0000  0.0192  -6.6571   0.0000   0.0000   0.0000   0.2303
 -11.100  -1.1852   0.01605   0.01049  -0.0080  1.0000  0.0197  -6.5676   0.0000   0.0000   0.0000   0.2308
 -11.000  -1.1768   0.01584   0.01027  -0.0076  1.0000  0.0201  -6.4743   0.0000   0.0000   0.0000   0.2312
 -10.900  -1.1681   0.01565   0.01008  -0.0073  1.0000  0.0205  -6.3795   0.0000   0.0000   0.0000   0.2316
 -10.800  -1.1593   0.01547   0.00990  -0.0069  1.0000  0.0208  -6.2844   0.0000   0.0000   0.0000   0.2320
 -10.700  -1.1504   0.01531   0.00973  -0.0066  1.0000  0.0212  -6.1897   0.0000   0.0000   0.0000   0.2324
 -10.600  -1.1415   0.01514   0.00956  -0.0063  1.0000  0.0215  -6.0953   0.0000   0.0000   0.0000   0.2327
 -10.500  -1.1325   0.01499   0.00939  -0.0059  1.0000  0.0218  -6.0011   0.0000   0.0000   0.0000   0.2331
 -10.400  -1.1234   0.01484   0.00923  -0.0056  1.0000  0.0221  -5.9074   0.0000   0.0000   0.0000   0.2335
 -10.300  -1.1144   0.01469   0.00907  -0.0053  1.0000  0.0224  -5.8142   0.0000   0.0000   0.0000   0.2339
 -10.200  -1.1054   0.01455   0.00892  -0.0050  1.0000  0.0227  -5.7216   0.0000   0.0000   0.0000   0.2343
 -10.100  -1.0963   0.01441   0.00877  -0.0046  1.0000  0.0230  -5.6293   0.0000   0.0000   0.0000   0.2347
 -10.000  -1.0872   0.01428   0.00862  -0.0043  1.0000  0.0232  -5.5375   0.0000   0.0000   0.0000   0.2351
  -9.900  -1.0781   0.01416   0.00849  -0.0039  1.0000  0.0234  -5.4459   0.0000   0.0000   0.0000   0.2355
  -9.800  -1.0690   0.01404   0.00836  -0.0036  1.0000  0.0236  -5.3546   0.0000   0.0000   0.0000   0.2359
  -9.700  -1.0598   0.01393   0.00824  -0.0033  1.0000  0.0237  -5.2684   0.0000   0.0000   0.0000   0.2363
  -9.600  -1.0510   0.01380   0.00810  -0.0028  1.0000  0.0239  -5.1892   0.0000   0.0000   0.0000   0.2368
  -9.500  -1.0440   0.01350   0.00776  -0.0021  1.0000  0.0248  -5.1262   0.0000   0.0000   0.0000   0.2376
  -9.400  -1.0362   0.01328   0.00753  -0.0015  1.0000  0.0257  -5.0560   0.0000   0.0000   0.0000   0.2383
  -9.300  -1.0280   0.01310   0.00735  -0.0010  1.0000  0.0265  -4.9817   0.0000   0.0000   0.0000   0.2389
  -9.200  -1.0196   0.01295   0.00721  -0.0005  1.0000  0.0271  -4.9056   0.0000   0.0000   0.0000   0.2395
  -9.100  -1.0111   0.01280   0.00707  -0.0001  1.0000  0.0277  -4.8289   0.0000   0.0000   0.0000   0.2401
  -9.000  -1.0025   0.01267   0.00694   0.0004  1.0000  0.0283  -4.7523   0.0000   0.0000   0.0000   0.2407
  -8.900  -0.9939   0.01255   0.00682   0.0009  1.0000  0.0288  -4.6759   0.0000   0.0000   0.0000   0.2413
  -8.800  -0.9852   0.01244   0.00670   0.0013  1.0000  0.0293  -4.5997   0.0000   0.0000   0.0000   0.2418
  -8.700  -0.9765   0.01233   0.00659   0.0018  1.0000  0.0298  -4.5237   0.0000   0.0000   0.0000   0.2424
  -8.600  -0.9678   0.01224   0.00648   0.0023  1.0000  0.0302  -4.4481   0.0000   0.0000   0.0000   0.2430
  -8.500  -0.9590   0.01214   0.00637   0.0027  1.0000  0.0306  -4.3726   0.0000   0.0000   0.0000   0.2437
  -8.400  -0.9502   0.01206   0.00628   0.0032  1.0000  0.0309  -4.2969   0.0000   0.0000   0.0000   0.2443
  -8.300  -0.9414   0.01199   0.00621   0.0036  1.0000  0.0311  -4.2211   0.0000   0.0000   0.0000   0.2449
  -8.200  -0.9338   0.01178   0.00599   0.0043  1.0000  0.0326  -4.1567   0.0000   0.0000   0.0000   0.2457
  -8.100  -0.9259   0.01162   0.00583   0.0049  1.0000  0.0341  -4.0891   0.0000   0.0000   0.0000   0.2466
  -8.000  -0.9178   0.01148   0.00571   0.0055  1.0000  0.0354  -4.0192   0.0000   0.0000   0.0000   0.2473
  -7.900  -0.9095   0.01136   0.00560   0.0060  1.0000  0.0364  -3.9488   0.0000   0.0000   0.0000   0.2481
  -7.800  -0.9012   0.01125   0.00549   0.0065  1.0000  0.0373  -3.8782   0.0000   0.0000   0.0000   0.2488
  -7.700  -0.8927   0.01115   0.00540   0.0070  1.0000  0.0382  -3.8077   0.0000   0.0000   0.0000   0.2496
  -7.600  -0.8841   0.01106   0.00530   0.0075  1.0000  0.0389  -3.7373   0.0000   0.0000   0.0000   0.2503
  -7.500  -0.8755   0.01098   0.00522   0.0080  1.0000  0.0395  -3.6669   0.0000   0.0000   0.0000   0.2511
  -7.400  -0.8668   0.01091   0.00514   0.0085  1.0000  0.0400  -3.5967   0.0000   0.0000   0.0000   0.2518
  -7.300  -0.8561   0.01082   0.00504   0.0085  0.9998  0.0408  -3.5208   0.0000   0.0000   0.0000   0.2521
  -7.200  -0.8431   0.01064   0.00487   0.0081  0.9993  0.0437  -3.4402   0.0000   0.0000   0.0000   0.2518
  -7.100  -0.8300   0.01048   0.00474   0.0076  0.9988  0.0461  -3.3577   0.0000   0.0000   0.0000   0.2514
  -7.000  -0.8168   0.01035   0.00463   0.0071  0.9982  0.0481  -3.2750   0.0000   0.0000   0.0000   0.2510
  -6.900  -0.8034   0.01024   0.00453   0.0065  0.9976  0.0497  -3.1923   0.0000   0.0000   0.0000   0.2506
  -6.800  -0.7899   0.01015   0.00444   0.0060  0.9969  0.0510  -3.1125   0.0000   0.0000   0.0000   0.2501
  -6.700  -0.7762   0.01008   0.00436   0.0054  0.9963  0.0518  -3.0378   0.0000   0.0000   0.0000   0.2496
  -6.600  -0.7630   0.00992   0.00422   0.0049  0.9955  0.0563  -2.9674   0.0000   0.0000   0.0000   0.2491
  -6.500  -0.7496   0.00978   0.00412   0.0043  0.9948  0.0601  -2.8958   0.0000   0.0000   0.0000   0.2486
  -6.400  -0.7361   0.00965   0.00402   0.0037  0.9941  0.0630  -2.8240   0.0000   0.0000   0.0000   0.2480
  -6.300  -0.7223   0.00956   0.00394   0.0031  0.9934  0.0652  -2.7519   0.0000   0.0000   0.0000   0.2473
  -6.200  -0.7084   0.00948   0.00385   0.0025  0.9928  0.0671  -2.6803   0.0000   0.0000   0.0000   0.2466
  -6.100  -0.6947   0.00933   0.00373   0.0019  0.9922  0.0730  -2.6105   0.0000   0.0000   0.0000   0.2459
  -6.000  -0.6809   0.00920   0.00364   0.0013  0.9916  0.0776  -2.5407   0.0000   0.0000   0.0000   0.2451
  -5.900  -0.6669   0.00909   0.00356   0.0006  0.9910  0.0813  -2.4707   0.0000   0.0000   0.0000   0.2442
  -5.800  -0.6527   0.00901   0.00348  -0.0001  0.9905  0.0837  -2.4006   0.0000   0.0000   0.0000   0.2432
  -5.700  -0.6387   0.00887   0.00338  -0.0008  0.9900  0.0912  -2.3322   0.0000   0.0000   0.0000   0.2422
  -5.600  -0.6249   0.00873   0.00329  -0.0014  0.9895  0.0976  -2.2648   0.0000   0.0000   0.0000   0.2412
  -5.500  -0.6132   0.00863   0.00321  -0.0015  0.9880  0.1022  -2.2035   0.0000   0.0000   0.0000   0.2411
  -5.400  -0.6009   0.00853   0.00313  -0.0018  0.9867  0.1081  -2.1412   0.0000   0.0000   0.0000   0.2407
  -5.300  -0.5885   0.00838   0.00304  -0.0021  0.9852  0.1166  -2.0854   0.0000   0.0000   0.0000   0.2401
  -5.200  -0.5755   0.00827   0.00296  -0.0026  0.9839  0.1227  -2.0287   0.0000   0.0000   0.0000   0.2393
  -5.100  -0.5623   0.00819   0.00289  -0.0030  0.9825  0.1280  -1.9721   0.0000   0.0000   0.0000   0.2385
  -5.000  -0.5497   0.00804   0.00280  -0.0034  0.9809  0.1379  -1.9173   0.0000   0.0000   0.0000   0.2377
  -4.900  -0.5368   0.00793   0.00273  -0.0038  0.9792  0.1453  -1.8623   0.0000   0.0000   0.0000   0.2369
  -4.800  -0.5238   0.00784   0.00266  -0.0042  0.9775  0.1524  -1.8077   0.0000   0.0000   0.0000   0.2360
  -4.700  -0.5112   0.00769   0.00257  -0.0045  0.9757  0.1642  -1.7545   0.0000   0.0000   0.0000   0.2352
  -4.600  -0.4980   0.00759   0.00251  -0.0050  0.9741  0.1723  -1.7002   0.0000   0.0000   0.0000   0.2341
  -4.500  -0.4850   0.00747   0.00243  -0.0054  0.9723  0.1838  -1.6470   0.0000   0.0000   0.0000   0.2330
  -4.400  -0.4719   0.00736   0.00237  -0.0059  0.9704  0.1935  -1.5941   0.0000   0.0000   0.0000   0.2318
  -4.300  -0.4613   0.00729   0.00232  -0.0057  0.9675  0.2002  -1.5496   0.0000   0.0000   0.0000   0.2318
  -4.200  -0.4515   0.00716   0.00225  -0.0054  0.9639  0.2116  -1.5092   0.0000   0.0000   0.0000   0.2323
  -4.100  -0.4409   0.00708   0.00219  -0.0053  0.9603  0.2208  -1.4675   0.0000   0.0000   0.0000   0.2324
  -4.000  -0.4299   0.00697   0.00213  -0.0052  0.9567  0.2321  -1.4254   0.0000   0.0000   0.0000   0.2322
  -3.900  -0.4187   0.00686   0.00207  -0.0052  0.9531  0.2435  -1.3833   0.0000   0.0000   0.0000   0.2320
  -3.800  -0.4073   0.00679   0.00201  -0.0052  0.9495  0.2524  -1.3410   0.0000   0.0000   0.0000   0.2317
  -3.700  -0.3963   0.00668   0.00195  -0.0052  0.9457  0.2641  -1.3001   0.0000   0.0000   0.0000   0.2315
  -3.600  -0.3859   0.00662   0.00191  -0.0050  0.9418  0.2727  -1.2603   0.0000   0.0000   0.0000   0.2317
  -3.500  -0.3755   0.00652   0.00186  -0.0048  0.9372  0.2840  -1.2227   0.0000   0.0000   0.0000   0.2319
  -3.400  -0.3651   0.00644   0.00181  -0.0046  0.9321  0.2957  -1.1876   0.0000   0.0000   0.0000   0.2321
  -3.300  -0.3544   0.00637   0.00176  -0.0044  0.9269  0.3057  -1.1525   0.0000   0.0000   0.0000   0.2323
  -3.200  -0.3440   0.00628   0.00171  -0.0042  0.9217  0.3176  -1.1179   0.0000   0.0000   0.0000   0.2325
  -3.100  -0.3331   0.00623   0.00168  -0.0041  0.9171  0.3259  -1.0830   0.0000   0.0000   0.0000   0.2325
  -3.000  -0.3226   0.00615   0.00164  -0.0039  0.9117  0.3376  -1.0488   0.0000   0.0000   0.0000   0.2326
  -2.900  -0.3120   0.00608   0.00159  -0.0038  0.9055  0.3490  -1.0159   0.0000   0.0000   0.0000   0.2328
  -2.800  -0.3015   0.00602   0.00155  -0.0036  0.8990  0.3596  -0.9858   0.0000   0.0000   0.0000   0.2331
  -2.700  -0.2911   0.00595   0.00150  -0.0034  0.8928  0.3714  -0.9559   0.0000   0.0000   0.0000   0.2334
  -2.600  -0.2800   0.00591   0.00148  -0.0033  0.8872  0.3797  -0.9255   0.0000   0.0000   0.0000   0.2332
  -2.500  -0.2695   0.00584   0.00144  -0.0031  0.8803  0.3918  -0.8961   0.0000   0.0000   0.0000   0.2334
  -2.400  -0.2589   0.00580   0.00140  -0.0030  0.8728  0.4029  -0.8670   0.0000   0.0000   0.0000   0.2337
  -2.300  -0.2483   0.00575   0.00137  -0.0028  0.8656  0.4138  -0.8410   0.0000   0.0000   0.0000   0.2340
  -2.200  -0.2375   0.00569   0.00134  -0.0027  0.8591  0.4253  -0.8148   0.0000   0.0000   0.0000   0.2339
  -2.100  -0.2265   0.00567   0.00131  -0.0026  0.8512  0.4334  -0.7886   0.0000   0.0000   0.0000   0.2339
  -2.000  -0.2162   0.00562   0.00128  -0.0023  0.8427  0.4457  -0.7634   0.0000   0.0000   0.0000   0.2343
  -1.900  -0.2053   0.00558   0.00126  -0.0022  0.8355  0.4568  -0.7394   0.0000   0.0000   0.0000   0.2343
  -1.800  -0.1945   0.00554   0.00123  -0.0021  0.8273  0.4677  -0.7167   0.0000   0.0000   0.0000   0.2343
  -1.700  -0.1839   0.00551   0.00121  -0.0020  0.8184  0.4787  -0.6944   0.0000   0.0000   0.0000   0.2346
  -1.600  -0.1730   0.00550   0.00118  -0.0018  0.8102  0.4871  -0.6719   0.0000   0.0000   0.0000   0.2346
  -1.500  -0.1622   0.00544   0.00116  -0.0017  0.8018  0.4995  -0.6513   0.0000   0.0000   0.0000   0.2346
  -1.400  -0.1515   0.00543   0.00114  -0.0016  0.7922  0.5104  -0.6317   0.0000   0.0000   0.0000   0.2348
  -1.300  -0.1408   0.00541   0.00112  -0.0014  0.7832  0.5207  -0.6123   0.0000   0.0000   0.0000   0.2351
  -1.200  -0.1299   0.00537   0.00111  -0.0014  0.7747  0.5317  -0.5927   0.0000   0.0000   0.0000   0.2349
  -1.100  -0.1190   0.00538   0.00109  -0.0012  0.7648  0.5406  -0.5752   0.0000   0.0000   0.0000   0.2349
  -1.000  -0.1084   0.00535   0.00108  -0.0011  0.7555  0.5524  -0.5584   0.0000   0.0000   0.0000   0.2354
  -0.900  -0.0974   0.00533   0.00107  -0.0010  0.7462  0.5635  -0.5413   0.0000   0.0000   0.0000   0.2351
  -0.800  -0.0867   0.00532   0.00106  -0.0009  0.7357  0.5731  -0.5247   0.0000   0.0000   0.0000   0.2354
  -0.700  -0.0759   0.00530   0.00105  -0.0008  0.7268  0.5841  -0.5099   0.0000   0.0000   0.0000   0.2355
  -0.600  -0.0648   0.00530   0.00104  -0.0007  0.7171  0.5936  -0.4949   0.0000   0.0000   0.0000   0.2348
  -0.500  -0.0543   0.00529   0.00103  -0.0005  0.7061  0.6046  -0.4804   0.0000   0.0000   0.0000   0.2359
  -0.400  -0.0434   0.00528   0.00102  -0.0004  0.6970  0.6158  -0.4660   0.0000   0.0000   0.0000   0.2355
  -0.300  -0.0324   0.00528   0.00102  -0.0003  0.6866  0.6249  -0.4530   0.0000   0.0000   0.0000   0.2347
  -0.200  -0.0218   0.00528   0.00102  -0.0002  0.6761  0.6358  -0.4402   0.0000   0.0000   0.0000   0.2371
  -0.100  -0.0107   0.00527   0.00101  -0.0001  0.6671  0.6459  -0.4271   0.0000   0.0000   0.0000   0.2334
   0.000   0.0000   0.00527   0.00101  -0.0000  0.6559  0.6559  -0.4147   0.0000   0.0000   0.0000   0.4473
   0.100   0.0107   0.00527   0.00101   0.0001  0.6459  0.6671  -0.4271   0.0000   0.0000   0.0000   0.2334
   0.200   0.0218   0.00528   0.00102   0.0002  0.6358  0.6761  -0.4402   0.0000   0.0000   0.0000   0.2371
   0.300   0.0324   0.00528   0.00102   0.0003  0.6249  0.6866  -0.4530   0.0000   0.0000   0.0000   0.2347
   0.400   0.0434   0.00528   0.00102   0.0004  0.6158  0.6970  -0.4660   0.0000   0.0000   0.0000   0.2355
   0.500   0.0543   0.00529   0.00103   0.0005  0.6046  0.7061  -0.4804   0.0000   0.0000   0.0000   0.2359
   0.600   0.0648   0.00530   0.00104   0.0007  0.5936  0.7171  -0.4949   0.0000   0.0000   0.0000   0.2349
   0.700   0.0759   0.00530   0.00105   0.0008  0.5841  0.7268  -0.5099   0.0000   0.0000   0.0000   0.2355
   0.800   0.0867   0.00532   0.00106   0.0009  0.5731  0.7357  -0.5247   0.0000   0.0000   0.0000   0.2354
   0.900   0.0974   0.00533   0.00107   0.0010  0.5635  0.7462  -0.5413   0.0000   0.0000   0.0000   0.2351
   1.000   0.1084   0.00535   0.00108   0.0011  0.5524  0.7555  -0.5584   0.0000   0.0000   0.0000   0.2354
   1.100   0.1190   0.00538   0.00109   0.0012  0.5406  0.7648  -0.5752   0.0000   0.0000   0.0000   0.2349
   1.200   0.1299   0.00537   0.00111   0.0014  0.5317  0.7747  -0.5928   0.0000   0.0000   0.0000   0.2349
   1.300   0.1408   0.00541   0.00112   0.0014  0.5207  0.7832  -0.6123   0.0000   0.0000   0.0000   0.2351
   1.400   0.1515   0.00543   0.00114   0.0016  0.5104  0.7922  -0.6317   0.0000   0.0000   0.0000   0.2348
   1.500   0.1622   0.00544   0.00116   0.0017  0.4995  0.8018  -0.6513   0.0000   0.0000   0.0000   0.2347
   1.600   0.1730   0.00550   0.00118   0.0018  0.4871  0.8102  -0.6719   0.0000   0.0000   0.0000   0.2346
   1.700   0.1839   0.00551   0.00121   0.0020  0.4787  0.8184  -0.6944   0.0000   0.0000   0.0000   0.2346
   1.800   0.1945   0.00554   0.00123   0.0021  0.4677  0.8273  -0.7168   0.0000   0.0000   0.0000   0.2343
   1.900   0.2053   0.00558   0.00126   0.0022  0.4568  0.8355  -0.7394   0.0000   0.0000   0.0000   0.2343
   2.000   0.2162   0.00562   0.00128   0.0023  0.4457  0.8427  -0.7634   0.0000   0.0000   0.0000   0.2344
   2.100   0.2266   0.00567   0.00131   0.0026  0.4334  0.8512  -0.7887   0.0000   0.0000   0.0000   0.2339
   2.200   0.2375   0.00569   0.00134   0.0027  0.4253  0.8591  -0.8148   0.0000   0.0000   0.0000   0.2339
   2.300   0.2483   0.00575   0.00137   0.0028  0.4138  0.8656  -0.8410   0.0000   0.0000   0.0000   0.2340
   2.400   0.2589   0.00580   0.00140   0.0029  0.4029  0.8728  -0.8670   0.0000   0.0000   0.0000   0.2337
   2.500   0.2695   0.00584   0.00144   0.0031  0.3918  0.8803  -0.8961   0.0000   0.0000   0.0000   0.2334
   2.600   0.2800   0.00591   0.00148   0.0033  0.3797  0.8872  -0.9256   0.0000   0.0000   0.0000   0.2333
   2.700   0.2911   0.00595   0.00150   0.0034  0.3714  0.8928  -0.9559   0.0000   0.0000   0.0000   0.2334
   2.800   0.3015   0.00602   0.00155   0.0036  0.3596  0.8990  -0.9858   0.0000   0.0000   0.0000   0.2331
   2.900   0.3121   0.00608   0.00159   0.0038  0.3490  0.9055  -1.0159   0.0000   0.0000   0.0000   0.2328
   3.000   0.3226   0.00615   0.00164   0.0039  0.3376  0.9117  -1.0489   0.0000   0.0000   0.0000   0.2326
   3.100   0.3331   0.00623   0.00168   0.0041  0.3259  0.9171  -1.0830   0.0000   0.0000   0.0000   0.2325
   3.200   0.3440   0.00628   0.00171   0.0042  0.3176  0.9217  -1.1179   0.0000   0.0000   0.0000   0.2325
   3.300   0.3544   0.00637   0.00176   0.0044  0.3057  0.9269  -1.1525   0.0000   0.0000   0.0000   0.2323
   3.400   0.3651   0.00644   0.00181   0.0046  0.2956  0.9321  -1.1877   0.0000   0.0000   0.0000   0.2322
   3.500   0.3756   0.00652   0.00186   0.0048  0.2840  0.9372  -1.2228   0.0000   0.0000   0.0000   0.2319
   3.600   0.3859   0.00662   0.00191   0.0050  0.2726  0.9418  -1.2604   0.0000   0.0000   0.0000   0.2317
   3.700   0.3963   0.00668   0.00195   0.0052  0.2641  0.9457  -1.3001   0.0000   0.0000   0.0000   0.2315
   3.800   0.4073   0.00679   0.00201   0.0052  0.2524  0.9495  -1.3410   0.0000   0.0000   0.0000   0.2317
   3.900   0.4187   0.00686   0.00206   0.0052  0.2435  0.9531  -1.3833   0.0000   0.0000   0.0000   0.2320
   4.000   0.4299   0.00697   0.00213   0.0052  0.2321  0.9567  -1.4254   0.0000   0.0000   0.0000   0.2323
   4.100   0.4409   0.00708   0.00219   0.0053  0.2208  0.9603  -1.4675   0.0000   0.0000   0.0000   0.2324
   4.200   0.4515   0.00716   0.00225   0.0054  0.2115  0.9639  -1.5093   0.0000   0.0000   0.0000   0.2323
   4.300   0.4613   0.00729   0.00232   0.0057  0.2002  0.9675  -1.5496   0.0000   0.0000   0.0000   0.2319
   4.400   0.4719   0.00736   0.00237   0.0059  0.1935  0.9704  -1.5941   0.0000   0.0000   0.0000   0.2318
   4.500   0.4850   0.00747   0.00243   0.0054  0.1838  0.9723  -1.6471   0.0000   0.0000   0.0000   0.2330
   4.600   0.4980   0.00759   0.00251   0.0050  0.1723  0.9741  -1.7003   0.0000   0.0000   0.0000   0.2341
   4.700   0.5112   0.00769   0.00257   0.0045  0.1642  0.9757  -1.7545   0.0000   0.0000   0.0000   0.2352
   4.800   0.5239   0.00784   0.00266   0.0042  0.1524  0.9775  -1.8078   0.0000   0.0000   0.0000   0.2360
   4.900   0.5368   0.00793   0.00272   0.0038  0.1453  0.9792  -1.8624   0.0000   0.0000   0.0000   0.2369
   5.000   0.5497   0.00804   0.00280   0.0034  0.1378  0.9809  -1.9174   0.0000   0.0000   0.0000   0.2377
   5.100   0.5623   0.00818   0.00289   0.0030  0.1280  0.9825  -1.9722   0.0000   0.0000   0.0000   0.2385
   5.200   0.5755   0.00827   0.00296   0.0025  0.1227  0.9839  -2.0287   0.0000   0.0000   0.0000   0.2393
   5.300   0.5885   0.00838   0.00304   0.0021  0.1166  0.9853  -2.0854   0.0000   0.0000   0.0000   0.2401
   5.400   0.6009   0.00853   0.00313   0.0018  0.1081  0.9867  -2.1412   0.0000   0.0000   0.0000   0.2407
   5.500   0.6132   0.00863   0.00321   0.0015  0.1022  0.9881  -2.2035   0.0000   0.0000   0.0000   0.2411
   5.600   0.6248   0.00873   0.00329   0.0014  0.0976  0.9895  -2.2647   0.0000   0.0000   0.0000   0.2412
   5.700   0.6387   0.00887   0.00338   0.0008  0.0912  0.9900  -2.3324   0.0000   0.0000   0.0000   0.2423
   5.800   0.6528   0.00901   0.00348   0.0001  0.0837  0.9905  -2.4008   0.0000   0.0000   0.0000   0.2433
   5.900   0.6670   0.00909   0.00356  -0.0006  0.0813  0.9910  -2.4709   0.0000   0.0000   0.0000   0.2442
   6.000   0.6810   0.00920   0.00364  -0.0013  0.0776  0.9916  -2.5408   0.0000   0.0000   0.0000   0.2451
   6.100   0.6948   0.00933   0.00373  -0.0019  0.0730  0.9922  -2.6107   0.0000   0.0000   0.0000   0.2459
   6.200   0.7085   0.00947   0.00385  -0.0025  0.0671  0.9928  -2.6804   0.0000   0.0000   0.0000   0.2467
   6.300   0.7224   0.00956   0.00394  -0.0032  0.0652  0.9935  -2.7521   0.0000   0.0000   0.0000   0.2474
   6.400   0.7361   0.00965   0.00402  -0.0038  0.0630  0.9941  -2.8242   0.0000   0.0000   0.0000   0.2480
   6.500   0.7497   0.00978   0.00412  -0.0043  0.0601  0.9948  -2.8960   0.0000   0.0000   0.0000   0.2486
   6.600   0.7630   0.00992   0.00422  -0.0049  0.0563  0.9956  -2.9676   0.0000   0.0000   0.0000   0.2492
   6.700   0.7763   0.01008   0.00436  -0.0054  0.0518  0.9963  -3.0380   0.0000   0.0000   0.0000   0.2496
   6.800   0.7899   0.01015   0.00444  -0.0060  0.0510  0.9970  -3.1127   0.0000   0.0000   0.0000   0.2502
   6.900   0.8035   0.01024   0.00453  -0.0065  0.0497  0.9976  -3.1925   0.0000   0.0000   0.0000   0.2506
   7.000   0.8169   0.01035   0.00463  -0.0071  0.0481  0.9983  -3.2753   0.0000   0.0000   0.0000   0.2511
   7.100   0.8301   0.01048   0.00474  -0.0076  0.0461  0.9988  -3.3580   0.0000   0.0000   0.0000   0.2514
   7.200   0.8432   0.01064   0.00487  -0.0081  0.0437  0.9994  -3.4405   0.0000   0.0000   0.0000   0.2518
   7.300   0.8562   0.01082   0.00504  -0.0085  0.0407  0.9998  -3.5210   0.0000   0.0000   0.0000   0.2521
   7.400   0.8666   0.01091   0.00514  -0.0084  0.0400  1.0000  -3.5960   0.0000   0.0000   0.0000   0.2518
   7.500   0.8753   0.01098   0.00522  -0.0080  0.0395  1.0000  -3.6662   0.0000   0.0000   0.0000   0.2510
   7.600   0.8839   0.01106   0.00530  -0.0075  0.0389  1.0000  -3.7366   0.0000   0.0000   0.0000   0.2503
   7.700   0.8925   0.01115   0.00539  -0.0070  0.0382  1.0000  -3.8070   0.0000   0.0000   0.0000   0.2495
   7.800   0.9010   0.01124   0.00549  -0.0065  0.0373  1.0000  -3.8775   0.0000   0.0000   0.0000   0.2488
   7.900   0.9094   0.01135   0.00559  -0.0060  0.0364  1.0000  -3.9481   0.0000   0.0000   0.0000   0.2480
   8.000   0.9176   0.01148   0.00570  -0.0054  0.0354  1.0000  -4.0186   0.0000   0.0000   0.0000   0.2473
   8.100   0.9257   0.01162   0.00582  -0.0049  0.0341  1.0000  -4.0885   0.0000   0.0000   0.0000   0.2465
   8.200   0.9337   0.01178   0.00598  -0.0042  0.0326  1.0000  -4.1562   0.0000   0.0000   0.0000   0.2457
   8.300   0.9412   0.01199   0.00620  -0.0036  0.0311  1.0000  -4.2205   0.0000   0.0000   0.0000   0.2448
   8.400   0.9501   0.01206   0.00628  -0.0031  0.0309  1.0000  -4.2963   0.0000   0.0000   0.0000   0.2442
   8.500   0.9589   0.01214   0.00637  -0.0027  0.0306  1.0000  -4.3720   0.0000   0.0000   0.0000   0.2436
   8.600   0.9676   0.01223   0.00648  -0.0022  0.0302  1.0000  -4.4476   0.0000   0.0000   0.0000   0.2430
   8.700   0.9764   0.01233   0.00659  -0.0018  0.0298  1.0000  -4.5232   0.0000   0.0000   0.0000   0.2424
   8.800   0.9851   0.01244   0.00670  -0.0013  0.0293  1.0000  -4.5992   0.0000   0.0000   0.0000   0.2418
   8.900   0.9938   0.01255   0.00682  -0.0008  0.0288  1.0000  -4.6755   0.0000   0.0000   0.0000   0.2412
   9.000   1.0024   0.01267   0.00694  -0.0004  0.0283  1.0000  -4.7520   0.0000   0.0000   0.0000   0.2406
   9.100   1.0110   0.01280   0.00707   0.0001  0.0277  1.0000  -4.8286   0.0000   0.0000   0.0000   0.2401
   9.200   1.0195   0.01294   0.00720   0.0005  0.0271  1.0000  -4.9053   0.0000   0.0000   0.0000   0.2395
   9.300   1.0280   0.01310   0.00735   0.0010  0.0265  1.0000  -4.9815   0.0000   0.0000   0.0000   0.2389
   9.400   1.0362   0.01328   0.00753   0.0015  0.0257  1.0000  -5.0558   0.0000   0.0000   0.0000   0.2383
   9.500   1.0440   0.01350   0.00776   0.0021  0.0248  1.0000  -5.1261   0.0000   0.0000   0.0000   0.2376
   9.600   1.0510   0.01380   0.00810   0.0028  0.0239  1.0000  -5.1891   0.0000   0.0000   0.0000   0.2368
   9.700   1.0598   0.01393   0.00824   0.0033  0.0237  1.0000  -5.2684   0.0000   0.0000   0.0000   0.2363
   9.800   1.0690   0.01404   0.00836   0.0036  0.0236  1.0000  -5.3547   0.0000   0.0000   0.0000   0.2359
   9.900   1.0781   0.01416   0.00849   0.0039  0.0234  1.0000  -5.4460   0.0000   0.0000   0.0000   0.2355
  10.000   1.0872   0.01428   0.00862   0.0043  0.0232  1.0000  -5.5377   0.0000   0.0000   0.0000   0.2351
  10.100   1.0963   0.01441   0.00877   0.0046  0.0230  1.0000  -5.6296   0.0000   0.0000   0.0000   0.2347
  10.200   1.1054   0.01455   0.00892   0.0049  0.0227  1.0000  -5.7219   0.0000   0.0000   0.0000   0.2343
  10.300   1.1145   0.01469   0.00907   0.0053  0.0224  1.0000  -5.8147   0.0000   0.0000   0.0000   0.2339
  10.400   1.1236   0.01484   0.00923   0.0056  0.0221  1.0000  -5.9079   0.0000   0.0000   0.0000   0.2335
  10.500   1.1326   0.01499   0.00939   0.0059  0.0218  1.0000  -6.0017   0.0000   0.0000   0.0000   0.2331
  10.600   1.1416   0.01514   0.00956   0.0062  0.0215  1.0000  -6.0960   0.0000   0.0000   0.0000   0.2328
  10.700   1.1506   0.01530   0.00973   0.0066  0.0212  1.0000  -6.1904   0.0000   0.0000   0.0000   0.2324
  10.800   1.1595   0.01547   0.00990   0.0069  0.0208  1.0000  -6.2853   0.0000   0.0000   0.0000   0.2320
  10.900   1.1683   0.01565   0.01008   0.0072  0.0205  1.0000  -6.3804   0.0000   0.0000   0.0000   0.2316
  11.000   1.1770   0.01584   0.01027   0.0076  0.0201  1.0000  -6.4752   0.0000   0.0000   0.0000   0.2313
  11.100   1.1855   0.01605   0.01049   0.0079  0.0197  1.0000  -6.5686   0.0000   0.0000   0.0000   0.2309
  11.200   1.1935   0.01631   0.01075   0.0084  0.0192  1.0000  -6.6582   0.0000   0.0000   0.0000   0.2304
  11.300   1.2006   0.01664   0.01111   0.0089  0.0187  1.0000  -6.7405   0.0000   0.0000   0.0000   0.2298
  11.400   1.2062   0.01711   0.01163   0.0097  0.0181  1.0000  -6.8097   0.0000   0.0000   0.0000   0.2291
  11.500   1.2140   0.01737   0.01192   0.0101  0.0179  1.0000  -6.8994   0.0000   0.0000   0.0000   0.2286
  11.600   1.2231   0.01752   0.01208   0.0104  0.0178  1.0000  -6.9999   0.0000   0.0000   0.0000   0.2283
  11.700   1.2319   0.01768   0.01226   0.0107  0.0177  1.0000  -7.0996   0.0000   0.0000   0.0000   0.2280
  11.800   1.2406   0.01785   0.01245   0.0110  0.0176  1.0000  -7.1989   0.0000   0.0000   0.0000   0.2276
  11.900   1.2492   0.01803   0.01264   0.0114  0.0175  1.0000  -7.2980   0.0000   0.0000   0.0000   0.2273
  12.000   1.2577   0.01821   0.01285   0.0117  0.0174  1.0000  -7.3967   0.0000   0.0000   0.0000   0.2269
  12.100   1.2660   0.01841   0.01306   0.0121  0.0172  1.0000  -7.4951   0.0000   0.0000   0.0000   0.2266
  12.200   1.2743   0.01861   0.01328   0.0124  0.0171  1.0000  -7.5931   0.0000   0.0000   0.0000   0.2262
  12.300   1.2823   0.01882   0.01351   0.0128  0.0170  1.0000  -7.6908   0.0000   0.0000   0.0000   0.2258
  12.400   1.2903   0.01903   0.01374   0.0132  0.0168  1.0000  -7.7883   0.0000   0.0000   0.0000   0.2254
  12.500   1.2982   0.01925   0.01398   0.0136  0.0166  1.0000  -7.8855   0.0000   0.0000   0.0000   0.2250
  12.600   1.3059   0.01948   0.01423   0.0140  0.0165  1.0000  -7.9826   0.0000   0.0000   0.0000   0.2246
  12.700   1.3135   0.01971   0.01448   0.0145  0.0163  1.0000  -8.0796   0.0000   0.0000   0.0000   0.2241
  12.800   1.3210   0.01994   0.01473   0.0149  0.0161  1.0000  -8.1762   0.0000   0.0000   0.0000   0.2237
  12.900   1.3283   0.02018   0.01499   0.0154  0.0160  1.0000  -8.2728   0.0000   0.0000   0.0000   0.2233
  13.000   1.3356   0.02043   0.01525   0.0158  0.0158  1.0000  -8.3692   0.0000   0.0000   0.0000   0.2228
  13.100   1.3427   0.02067   0.01551   0.0163  0.0157  1.0000  -8.4653   0.0000   0.0000   0.0000   0.2224
  13.200   1.3496   0.02093   0.01578   0.0168  0.0155  1.0000  -8.5609   0.0000   0.0000   0.0000   0.2219
  13.300   1.3563   0.02119   0.01606   0.0173  0.0154  1.0000  -8.6554   0.0000   0.0000   0.0000   0.2214
  13.400   1.3625   0.02146   0.01635   0.0179  0.0152  1.0000  -8.7477   0.0000   0.0000   0.0000   0.2208
  13.500   1.3679   0.02174   0.01665   0.0187  0.0151  1.0000  -8.8355   0.0000   0.0000   0.0000   0.2202
  13.600   1.3728   0.02203   0.01696   0.0195  0.0149  1.0000  -8.9206   0.0000   0.0000   0.0000   0.2195
  13.700   1.3773   0.02234   0.01729   0.0203  0.0148  1.0000  -9.0032   0.0000   0.0000   0.0000   0.2188
  13.800   1.3814   0.02268   0.01766   0.0212  0.0146  1.0000  -9.0830   0.0000   0.0000   0.0000   0.2180
  13.900   1.3850   0.02306   0.01806   0.0221  0.0144  1.0000  -9.1588   0.0000   0.0000   0.0000   0.2172
  14.000   1.3880   0.02349   0.01852   0.0230  0.0143  1.0000  -9.2298   0.0000   0.0000   0.0000   0.2165
  14.100   1.3903   0.02398   0.01904   0.0239  0.0141  1.0000  -9.2949   0.0000   0.0000   0.0000   0.2156
  14.200   1.3915   0.02454   0.01964   0.0249  0.0139  1.0000  -9.3512   0.0000   0.0000   0.0000   0.2147
  14.300   1.3916   0.02520   0.02034   0.0259  0.0137  1.0000  -9.3988   0.0000   0.0000   0.0000   0.2138
  14.400   1.3902   0.02598   0.02118   0.0270  0.0135  1.0000  -9.4349   0.0000   0.0000   0.0000   0.2129
  14.500   1.3872   0.02691   0.02218   0.0281  0.0134  1.0000  -9.4571   0.0000   0.0000   0.0000   0.2119
  14.600   1.3823   0.02803   0.02339   0.0291  0.0132  1.0000  -9.4631   0.0000   0.0000   0.0000   0.2108
  14.700   1.3833   0.02874   0.02414   0.0297  0.0131  1.0000  -9.5186   0.0000   0.0000   0.0000   0.2103
  14.800   1.3871   0.02926   0.02468   0.0300  0.0131  1.0000  -9.5963   0.0000   0.0000   0.0000   0.2099
  14.900   1.3904   0.02981   0.02527   0.0303  0.0131  1.0000  -9.6712   0.0000   0.0000   0.0000   0.2095
  15.000   1.3936   0.03039   0.02588   0.0307  0.0130  1.0000  -9.7452   0.0000   0.0000   0.0000   0.2091


