xflr5 v6.61

 Calculated polar for: NACA 0012

 1 1 Reynolds number fixed          Mach number fixed         

 xtrf =   1.000 (top)        1.000 (bottom)
 Mach =   0.000     Re =     1.000 e 6     Ncrit =   9.000

  alpha     CL        CD       CDp       Cm    Top Xtr Bot Xtr   Cpmin    Chinge    XCp    
 ------- -------- --------- --------- -------- ------- ------- -------- --------- ---------
 -15.000  -1.3796   0.03161   0.02699  -0.0314  1.0000  0.0144  -9.6322   0.0000   0.0000   0.0000   0.2083
 -14.900  -1.3790   0.03079   0.02612  -0.0311  1.0000  0.0145  -9.5798   0.0000   0.0000   0.0000   0.2087
 -14.800  -1.3777   0.03005   0.02535  -0.0307  1.0000  0.0146  -9.5219   0.0000   0.0000   0.0000   0.2092
 -14.700  -1.3760   0.02936   0.02463  -0.0303  1.0000  0.0147  -9.4603   0.0000   0.0000   0.0000   0.2097
 -14.600  -1.3737   0.02873   0.02397  -0.0299  1.0000  0.0148  -9.3940   0.0000   0.0000   0.0000   0.2101
 -14.500  -1.3712   0.02815   0.02336  -0.0294  1.0000  0.0149  -9.3258   0.0000   0.0000   0.0000   0.2106
 -14.400  -1.3682   0.02761   0.02279  -0.0289  1.0000  0.0150  -9.2547   0.0000   0.0000   0.0000   0.2112
 -14.300  -1.3651   0.02711   0.02226  -0.0283  1.0000  0.0152  -9.1820   0.0000   0.0000   0.0000   0.2117
 -14.200  -1.3617   0.02663   0.02176  -0.0278  1.0000  0.0153  -9.1078   0.0000   0.0000   0.0000   0.2122
 -14.100  -1.3580   0.02619   0.02130  -0.0272  1.0000  0.0154  -9.0314   0.0000   0.0000   0.0000   0.2128
 -14.000  -1.3542   0.02576   0.02084  -0.0266  1.0000  0.0155  -8.9544   0.0000   0.0000   0.0000   0.2134
 -13.900  -1.3502   0.02536   0.02041  -0.0259  1.0000  0.0156  -8.8766   0.0000   0.0000   0.0000   0.2140
 -13.800  -1.3460   0.02497   0.02000  -0.0253  1.0000  0.0158  -8.7983   0.0000   0.0000   0.0000   0.2146
 -13.700  -1.3419   0.02460   0.01959  -0.0246  1.0000  0.0159  -8.7198   0.0000   0.0000   0.0000   0.2152
 -13.600  -1.3375   0.02424   0.01920  -0.0239  1.0000  0.0160  -8.6404   0.0000   0.0000   0.0000   0.2158
 -13.500  -1.3330   0.02390   0.01883  -0.0232  1.0000  0.0162  -8.5603   0.0000   0.0000   0.0000   0.2165
 -13.400  -1.3285   0.02357   0.01848  -0.0224  1.0000  0.0163  -8.4803   0.0000   0.0000   0.0000   0.2172
 -13.300  -1.3238   0.02325   0.01813  -0.0217  1.0000  0.0164  -8.4000   0.0000   0.0000   0.0000   0.2178
 -13.200  -1.3191   0.02295   0.01780  -0.0209  1.0000  0.0166  -8.3190   0.0000   0.0000   0.0000   0.2185
 -13.100  -1.3141   0.02265   0.01748  -0.0201  1.0000  0.0167  -8.2374   0.0000   0.0000   0.0000   0.2192
 -13.000  -1.3090   0.02237   0.01717  -0.0193  1.0000  0.0169  -8.1547   0.0000   0.0000   0.0000   0.2199
 -12.900  -1.3034   0.02210   0.01688  -0.0186  1.0000  0.0170  -8.0701   0.0000   0.0000   0.0000   0.2206
 -12.800  -1.2971   0.02183   0.01658  -0.0180  1.0000  0.0171  -7.9816   0.0000   0.0000   0.0000   0.2211
 -12.700  -1.2904   0.02157   0.01630  -0.0175  1.0000  0.0172  -7.8911   0.0000   0.0000   0.0000   0.2216
 -12.600  -1.2834   0.02132   0.01602  -0.0170  1.0000  0.0174  -7.7996   0.0000   0.0000   0.0000   0.2221
 -12.500  -1.2762   0.02108   0.01576  -0.0165  1.0000  0.0175  -7.7070   0.0000   0.0000   0.0000   0.2225
 -12.400  -1.2688   0.02085   0.01550  -0.0161  1.0000  0.0176  -7.6134   0.0000   0.0000   0.0000   0.2230
 -12.300  -1.2612   0.02063   0.01526  -0.0156  1.0000  0.0177  -7.5190   0.0000   0.0000   0.0000   0.2234
 -12.200  -1.2534   0.02042   0.01503  -0.0152  1.0000  0.0178  -7.4239   0.0000   0.0000   0.0000   0.2238
 -12.100  -1.2454   0.02022   0.01481  -0.0148  1.0000  0.0178  -7.3281   0.0000   0.0000   0.0000   0.2242
 -12.000  -1.2373   0.02003   0.01460  -0.0144  1.0000  0.0179  -7.2319   0.0000   0.0000   0.0000   0.2246
 -11.900  -1.2332   0.01949   0.01401  -0.0135  1.0000  0.0182  -7.1696   0.0000   0.0000   0.0000   0.2254
 -11.800  -1.2292   0.01893   0.01340  -0.0126  1.0000  0.0186  -7.1087   0.0000   0.0000   0.0000   0.2263
 -11.700  -1.2234   0.01852   0.01295  -0.0119  1.0000  0.0191  -7.0338   0.0000   0.0000   0.0000   0.2269
 -11.600  -1.2165   0.01819   0.01260  -0.0114  1.0000  0.0195  -6.9494   0.0000   0.0000   0.0000   0.2275
 -11.500  -1.2088   0.01793   0.01233  -0.0109  1.0000  0.0199  -6.8590   0.0000   0.0000   0.0000   0.2279
 -11.400  -1.2007   0.01770   0.01209  -0.0105  1.0000  0.0202  -6.7657   0.0000   0.0000   0.0000   0.2284
 -11.300  -1.1924   0.01750   0.01188  -0.0102  1.0000  0.0205  -6.6709   0.0000   0.0000   0.0000   0.2287
 -11.200  -1.1839   0.01730   0.01168  -0.0098  1.0000  0.0208  -6.5757   0.0000   0.0000   0.0000   0.2291
 -11.100  -1.1752   0.01712   0.01149  -0.0095  1.0000  0.0212  -6.4804   0.0000   0.0000   0.0000   0.2295
 -11.000  -1.1665   0.01694   0.01130  -0.0092  1.0000  0.0215  -6.3857   0.0000   0.0000   0.0000   0.2298
 -10.900  -1.1578   0.01676   0.01111  -0.0088  1.0000  0.0218  -6.2921   0.0000   0.0000   0.0000   0.2302
 -10.800  -1.1491   0.01658   0.01091  -0.0085  1.0000  0.0221  -6.1992   0.0000   0.0000   0.0000   0.2306
 -10.700  -1.1404   0.01640   0.01072  -0.0081  1.0000  0.0223  -6.1066   0.0000   0.0000   0.0000   0.2310
 -10.600  -1.1315   0.01623   0.01053  -0.0078  1.0000  0.0226  -6.0142   0.0000   0.0000   0.0000   0.2314
 -10.500  -1.1226   0.01607   0.01035  -0.0075  1.0000  0.0229  -5.9219   0.0000   0.0000   0.0000   0.2317
 -10.400  -1.1137   0.01591   0.01018  -0.0071  1.0000  0.0231  -5.8296   0.0000   0.0000   0.0000   0.2321
 -10.300  -1.1046   0.01576   0.01002  -0.0068  1.0000  0.0233  -5.7372   0.0000   0.0000   0.0000   0.2325
 -10.200  -1.0955   0.01563   0.00987  -0.0065  1.0000  0.0235  -5.6448   0.0000   0.0000   0.0000   0.2328
 -10.100  -1.0863   0.01550   0.00973  -0.0062  1.0000  0.0237  -5.5524   0.0000   0.0000   0.0000   0.2332
 -10.000  -1.0770   0.01538   0.00959  -0.0059  1.0000  0.0238  -5.4601   0.0000   0.0000   0.0000   0.2336
  -9.900  -1.0706   0.01499   0.00915  -0.0052  1.0000  0.0245  -5.3913   0.0000   0.0000   0.0000   0.2343
  -9.800  -1.0634   0.01468   0.00882  -0.0045  1.0000  0.0253  -5.3162   0.0000   0.0000   0.0000   0.2350
  -9.700  -1.0554   0.01444   0.00858  -0.0040  1.0000  0.0260  -5.2418   0.0000   0.0000   0.0000   0.2356
  -9.600  -1.0471   0.01425   0.00839  -0.0035  1.0000  0.0266  -5.1661   0.0000   0.0000   0.0000   0.2362
  -9.500  -1.0386   0.01408   0.00822  -0.0031  1.0000  0.0272  -5.0891   0.0000   0.0000   0.0000   0.2367
  -9.400  -1.0301   0.01393   0.00807  -0.0026  1.0000  0.0277  -5.0117   0.0000   0.0000   0.0000   0.2372
  -9.300  -1.0214   0.01379   0.00792  -0.0022  1.0000  0.0282  -4.9344   0.0000   0.0000   0.0000   0.2377
  -9.200  -1.0128   0.01366   0.00778  -0.0018  1.0000  0.0287  -4.8572   0.0000   0.0000   0.0000   0.2383
  -9.100  -1.0040   0.01353   0.00765  -0.0013  1.0000  0.0292  -4.7804   0.0000   0.0000   0.0000   0.2388
  -9.000  -0.9953   0.01341   0.00752  -0.0009  1.0000  0.0297  -4.7038   0.0000   0.0000   0.0000   0.2394
  -8.900  -0.9865   0.01329   0.00739  -0.0005  1.0000  0.0301  -4.6275   0.0000   0.0000   0.0000   0.2399
  -8.800  -0.9777   0.01319   0.00727  -0.0000  1.0000  0.0305  -4.5512   0.0000   0.0000   0.0000   0.2404
  -8.700  -0.9688   0.01309   0.00717   0.0004  1.0000  0.0308  -4.4745   0.0000   0.0000   0.0000   0.2410
  -8.600  -0.9598   0.01301   0.00707   0.0008  1.0000  0.0310  -4.3974   0.0000   0.0000   0.0000   0.2415
  -8.500  -0.9522   0.01278   0.00683   0.0014  1.0000  0.0321  -4.3327   0.0000   0.0000   0.0000   0.2424
  -8.400  -0.9447   0.01257   0.00661   0.0021  1.0000  0.0336  -4.2673   0.0000   0.0000   0.0000   0.2432
  -8.300  -0.9366   0.01240   0.00646   0.0027  1.0000  0.0348  -4.1975   0.0000   0.0000   0.0000   0.2439
  -8.200  -0.9284   0.01226   0.00633   0.0032  1.0000  0.0358  -4.1264   0.0000   0.0000   0.0000   0.2446
  -8.100  -0.9200   0.01213   0.00621   0.0037  1.0000  0.0368  -4.0549   0.0000   0.0000   0.0000   0.2453
  -8.000  -0.9115   0.01202   0.00610   0.0042  1.0000  0.0376  -3.9837   0.0000   0.0000   0.0000   0.2460
  -7.900  -0.9030   0.01192   0.00599   0.0047  1.0000  0.0384  -3.9126   0.0000   0.0000   0.0000   0.2467
  -7.800  -0.8944   0.01183   0.00589   0.0052  1.0000  0.0391  -3.8417   0.0000   0.0000   0.0000   0.2474
  -7.700  -0.8857   0.01174   0.00579   0.0057  1.0000  0.0396  -3.7708   0.0000   0.0000   0.0000   0.2481
  -7.600  -0.8770   0.01166   0.00571   0.0062  1.0000  0.0400  -3.7000   0.0000   0.0000   0.0000   0.2488
  -7.500  -0.8687   0.01154   0.00558   0.0067  1.0000  0.0410  -3.6330   0.0000   0.0000   0.0000   0.2496
  -7.400  -0.8609   0.01136   0.00540   0.0073  1.0000  0.0434  -3.5701   0.0000   0.0000   0.0000   0.2505
  -7.300  -0.8528   0.01122   0.00527   0.0079  1.0000  0.0453  -3.5045   0.0000   0.0000   0.0000   0.2514
  -7.200  -0.8446   0.01109   0.00517   0.0084  1.0000  0.0469  -3.4379   0.0000   0.0000   0.0000   0.2522
  -7.100  -0.8362   0.01098   0.00506   0.0089  1.0000  0.0484  -3.3709   0.0000   0.0000   0.0000   0.2530
  -7.000  -0.8276   0.01089   0.00497   0.0094  1.0000  0.0497  -3.3039   0.0000   0.0000   0.0000   0.2538
  -6.900  -0.8180   0.01081   0.00488   0.0097  0.9999  0.0508  -3.2333   0.0000   0.0000   0.0000   0.2544
  -6.800  -0.8042   0.01073   0.00480   0.0091  0.9994  0.0517  -3.1493   0.0000   0.0000   0.0000   0.2539
  -6.700  -0.7909   0.01057   0.00465   0.0086  0.9988  0.0554  -3.0770   0.0000   0.0000   0.0000   0.2535
  -6.600  -0.7775   0.01041   0.00453   0.0080  0.9981  0.0593  -3.0053   0.0000   0.0000   0.0000   0.2531
  -6.500  -0.7641   0.01027   0.00442   0.0074  0.9974  0.0623  -2.9330   0.0000   0.0000   0.0000   0.2526
  -6.400  -0.7504   0.01016   0.00433   0.0068  0.9967  0.0647  -2.8605   0.0000   0.0000   0.0000   0.2521
  -6.300  -0.7365   0.01009   0.00424   0.0062  0.9959  0.0661  -2.7878   0.0000   0.0000   0.0000   0.2515
  -6.200  -0.7228   0.00994   0.00412   0.0056  0.9951  0.0714  -2.7179   0.0000   0.0000   0.0000   0.2509
  -6.100  -0.7093   0.00979   0.00402   0.0050  0.9943  0.0764  -2.6480   0.0000   0.0000   0.0000   0.2503
  -6.000  -0.6955   0.00967   0.00391   0.0044  0.9936  0.0804  -2.5777   0.0000   0.0000   0.0000   0.2496
  -5.900  -0.6813   0.00958   0.00383   0.0037  0.9928  0.0832  -2.5070   0.0000   0.0000   0.0000   0.2488
  -5.800  -0.6673   0.00946   0.00373   0.0030  0.9921  0.0894  -2.4377   0.0000   0.0000   0.0000   0.2479
  -5.700  -0.6533   0.00930   0.00363   0.0023  0.9915  0.0963  -2.3692   0.0000   0.0000   0.0000   0.2471
  -5.600  -0.6392   0.00919   0.00355   0.0016  0.9909  0.1017  -2.3004   0.0000   0.0000   0.0000   0.2461
  -5.500  -0.6248   0.00908   0.00346   0.0009  0.9903  0.1079  -2.2318   0.0000   0.0000   0.0000   0.2450
  -5.400  -0.6106   0.00893   0.00337   0.0001  0.9898  0.1169  -2.1645   0.0000   0.0000   0.0000   0.2439
  -5.300  -0.5979   0.00881   0.00329  -0.0002  0.9887  0.1231  -2.1058   0.0000   0.0000   0.0000   0.2434
  -5.200  -0.5857   0.00871   0.00320  -0.0005  0.9872  0.1289  -2.0508   0.0000   0.0000   0.0000   0.2430
  -5.100  -0.5732   0.00856   0.00311  -0.0008  0.9857  0.1385  -1.9959   0.0000   0.0000   0.0000   0.2425
  -5.000  -0.5602   0.00845   0.00303  -0.0012  0.9843  0.1460  -1.9399   0.0000   0.0000   0.0000   0.2417
  -4.900  -0.5468   0.00834   0.00295  -0.0017  0.9829  0.1548  -1.8838   0.0000   0.0000   0.0000   0.2408
  -4.800  -0.5336   0.00819   0.00286  -0.0023  0.9816  0.1661  -1.8284   0.0000   0.0000   0.0000   0.2398
  -4.700  -0.5199   0.00809   0.00279  -0.0028  0.9802  0.1740  -1.7724   0.0000   0.0000   0.0000   0.2386
  -4.600  -0.5066   0.00794   0.00271  -0.0033  0.9787  0.1870  -1.7182   0.0000   0.0000   0.0000   0.2375
  -4.500  -0.4932   0.00783   0.00264  -0.0039  0.9771  0.1961  -1.6638   0.0000   0.0000   0.0000   0.2363
  -4.400  -0.4800   0.00771   0.00257  -0.0043  0.9755  0.2068  -1.6106   0.0000   0.0000   0.0000   0.2352
  -4.300  -0.4667   0.00759   0.00250  -0.0048  0.9739  0.2181  -1.5595   0.0000   0.0000   0.0000   0.2339
  -4.200  -0.4531   0.00748   0.00243  -0.0054  0.9723  0.2291  -1.5117   0.0000   0.0000   0.0000   0.2324
  -4.100  -0.4396   0.00735   0.00237  -0.0059  0.9705  0.2425  -1.4648   0.0000   0.0000   0.0000   0.2309
  -4.000  -0.4286   0.00727   0.00231  -0.0058  0.9677  0.2518  -1.4227   0.0000   0.0000   0.0000   0.2307
  -3.900  -0.4188   0.00715   0.00224  -0.0056  0.9641  0.2637  -1.3831   0.0000   0.0000   0.0000   0.2312
  -3.800  -0.4080   0.00707   0.00219  -0.0054  0.9604  0.2727  -1.3421   0.0000   0.0000   0.0000   0.2312
  -3.700  -0.3968   0.00697   0.00214  -0.0054  0.9568  0.2840  -1.3007   0.0000   0.0000   0.0000   0.2309
  -3.600  -0.3852   0.00687   0.00208  -0.0055  0.9534  0.2961  -1.2589   0.0000   0.0000   0.0000   0.2304
  -3.500  -0.3736   0.00678   0.00202  -0.0056  0.9500  0.3076  -1.2194   0.0000   0.0000   0.0000   0.2298
  -3.400  -0.3621   0.00668   0.00197  -0.0056  0.9464  0.3200  -1.1827   0.0000   0.0000   0.0000   0.2292
  -3.300  -0.3517   0.00662   0.00193  -0.0054  0.9424  0.3286  -1.1480   0.0000   0.0000   0.0000   0.2294
  -3.200  -0.3415   0.00652   0.00188  -0.0051  0.9375  0.3405  -1.1140   0.0000   0.0000   0.0000   0.2297
  -3.100  -0.3309   0.00645   0.00184  -0.0050  0.9325  0.3511  -1.0794   0.0000   0.0000   0.0000   0.2298
  -3.000  -0.3203   0.00636   0.00179  -0.0048  0.9275  0.3632  -1.0452   0.0000   0.0000   0.0000   0.2299
  -2.900  -0.3096   0.00629   0.00174  -0.0046  0.9225  0.3748  -1.0125   0.0000   0.0000   0.0000   0.2299
  -2.800  -0.2988   0.00623   0.00170  -0.0045  0.9177  0.3846  -0.9821   0.0000   0.0000   0.0000   0.2299
  -2.700  -0.2884   0.00615   0.00166  -0.0043  0.9121  0.3961  -0.9523   0.0000   0.0000   0.0000   0.2300
  -2.600  -0.2777   0.00610   0.00163  -0.0041  0.9060  0.4060  -0.9224   0.0000   0.0000   0.0000   0.2301
  -2.500  -0.2673   0.00602   0.00159  -0.0039  0.8997  0.4186  -0.8932   0.0000   0.0000   0.0000   0.2304
  -2.400  -0.2567   0.00598   0.00155  -0.0037  0.8935  0.4297  -0.8644   0.0000   0.0000   0.0000   0.2306
  -2.300  -0.2459   0.00592   0.00152  -0.0036  0.8877  0.4397  -0.8382   0.0000   0.0000   0.0000   0.2305
  -2.200  -0.2353   0.00586   0.00149  -0.0034  0.8807  0.4511  -0.8123   0.0000   0.0000   0.0000   0.2306
  -2.000  -0.2143   0.00577   0.00142  -0.0030  0.8661  0.4736  -0.7613   0.0000   0.0000   0.0000   0.2312
  -1.900  -0.2034   0.00573   0.00140  -0.0029  0.8595  0.4842  -0.7375   0.0000   0.0000   0.0000   0.2309
  -1.800  -0.1927   0.00568   0.00137  -0.0027  0.8515  0.4943  -0.7150   0.0000   0.0000   0.0000   0.2310
  -1.700  -0.1822   0.00565   0.00134  -0.0025  0.8431  0.5057  -0.6928   0.0000   0.0000   0.0000   0.2314
  -1.600  -0.1713   0.00563   0.00131  -0.0024  0.8357  0.5156  -0.6703   0.0000   0.0000   0.0000   0.2312
  -1.500  -0.1607   0.00557   0.00129  -0.0023  0.8275  0.5280  -0.6500   0.0000   0.0000   0.0000   0.2313
  -1.400  -0.1500   0.00556   0.00127  -0.0021  0.8186  0.5381  -0.6305   0.0000   0.0000   0.0000   0.2314
  -1.300  -0.1394   0.00553   0.00125  -0.0019  0.8102  0.5483  -0.6111   0.0000   0.0000   0.0000   0.2316
  -1.200  -0.1286   0.00549   0.00123  -0.0018  0.8017  0.5598  -0.5917   0.0000   0.0000   0.0000   0.2314
  -1.100  -0.1178   0.00549   0.00122  -0.0016  0.7920  0.5696  -0.5744   0.0000   0.0000   0.0000   0.2315
  -1.000  -0.1074   0.00545   0.00120  -0.0014  0.7833  0.5814  -0.5577   0.0000   0.0000   0.0000   0.2320
  -0.900  -0.0964   0.00544   0.00119  -0.0013  0.7744  0.5916  -0.5406   0.0000   0.0000   0.0000   0.2314
  -0.800  -0.0858   0.00542   0.00117  -0.0012  0.7642  0.6015  -0.5241   0.0000   0.0000   0.0000   0.2318
  -0.700  -0.0752   0.00541   0.00116  -0.0010  0.7551  0.6129  -0.5094   0.0000   0.0000   0.0000   0.2321
  -0.500  -0.0537   0.00538   0.00114  -0.0007  0.7352  0.6340  -0.4801   0.0000   0.0000   0.0000   0.2324
  -0.400  -0.0429   0.00538   0.00114  -0.0006  0.7261  0.6443  -0.4658   0.0000   0.0000   0.0000   0.2319
  -0.300  -0.0321   0.00537   0.00113  -0.0005  0.7158  0.6539  -0.4528   0.0000   0.0000   0.0000   0.2310
  -0.200  -0.0217   0.00537   0.00113  -0.0002  0.7050  0.6651  -0.4401   0.0000   0.0000   0.0000   0.2341
  -0.100  -0.0106   0.00537   0.00113  -0.0002  0.6959  0.6751  -0.4271   0.0000   0.0000   0.0000   0.2294
   0.000   0.0000   0.00536   0.00113  -0.0000  0.6854  0.6854  -0.4147   0.0000   0.0000   0.0000   0.4501
   0.100   0.0106   0.00537   0.00113   0.0002  0.6751  0.6959  -0.4271   0.0000   0.0000   0.0000   0.2294
   0.300   0.0321   0.00537   0.00113   0.0005  0.6539  0.7158  -0.4528   0.0000   0.0000   0.0000   0.2310
   0.400   0.0429   0.00538   0.00114   0.0006  0.6443  0.7261  -0.4658   0.0000   0.0000   0.0000   0.2319
   0.500   0.0537   0.00538   0.00114   0.0007  0.6340  0.7352  -0.4801   0.0000   0.0000   0.0000   0.2324
   0.700   0.0752   0.00541   0.00116   0.0010  0.6129  0.7551  -0.5094   0.0000   0.0000   0.0000   0.2321
   0.800   0.0858   0.00542   0.00117   0.0012  0.6015  0.7642  -0.5241   0.0000   0.0000   0.0000   0.2318
   0.900   0.0964   0.00544   0.00119   0.0013  0.5916  0.7744  -0.5406   0.0000   0.0000   0.0000   0.2314
   1.000   0.1074   0.00545   0.00120   0.0014  0.5814  0.7833  -0.5577   0.0000   0.0000   0.0000   0.2320
   1.100   0.1178   0.00549   0.00122   0.0016  0.5696  0.7920  -0.5744   0.0000   0.0000   0.0000   0.2315
   1.200   0.1286   0.00549   0.00123   0.0018  0.5598  0.8017  -0.5917   0.0000   0.0000   0.0000   0.2315
   1.300   0.1394   0.00553   0.00125   0.0019  0.5483  0.8102  -0.6111   0.0000   0.0000   0.0000   0.2316
   1.400   0.1500   0.00556   0.00127   0.0021  0.5381  0.8186  -0.6305   0.0000   0.0000   0.0000   0.2314
   1.500   0.1607   0.00557   0.00129   0.0023  0.5280  0.8275  -0.6500   0.0000   0.0000   0.0000   0.2313
   1.600   0.1713   0.00563   0.00131   0.0024  0.5156  0.8357  -0.6703   0.0000   0.0000   0.0000   0.2312
   1.700   0.1822   0.00565   0.00134   0.0025  0.5057  0.8431  -0.6928   0.0000   0.0000   0.0000   0.2314
   1.800   0.1927   0.00568   0.00137   0.0027  0.4943  0.8515  -0.7150   0.0000   0.0000   0.0000   0.2310
   1.900   0.2034   0.00573   0.00140   0.0029  0.4842  0.8595  -0.7375   0.0000   0.0000   0.0000   0.2309
   2.000   0.2143   0.00577   0.00142   0.0030  0.4736  0.8661  -0.7613   0.0000   0.0000   0.0000   0.2312
   2.200   0.2354   0.00586   0.00149   0.0034  0.4511  0.8807  -0.8123   0.0000   0.0000   0.0000   0.2306
   2.300   0.2459   0.00592   0.00152   0.0036  0.4397  0.8877  -0.8382   0.0000   0.0000   0.0000   0.2305
   2.400   0.2567   0.00598   0.00155   0.0037  0.4297  0.8935  -0.8644   0.0000   0.0000   0.0000   0.2306
   2.500   0.2673   0.00602   0.00159   0.0039  0.4186  0.8997  -0.8932   0.0000   0.0000   0.0000   0.2304
   2.600   0.2777   0.00610   0.00163   0.0041  0.4060  0.9060  -0.9224   0.0000   0.0000   0.0000   0.2301
   2.700   0.2884   0.00615   0.00166   0.0043  0.3960  0.9121  -0.9523   0.0000   0.0000   0.0000   0.2300
   2.800   0.2989   0.00623   0.00170   0.0045  0.3846  0.9177  -0.9821   0.0000   0.0000   0.0000   0.2299
   2.900   0.3096   0.00629   0.00174   0.0046  0.3748  0.9225  -1.0125   0.0000   0.0000   0.0000   0.2299
   3.000   0.3203   0.00636   0.00179   0.0048  0.3632  0.9275  -1.0452   0.0000   0.0000   0.0000   0.2299
   3.100   0.3309   0.00645   0.00184   0.0050  0.3511  0.9325  -1.0794   0.0000   0.0000   0.0000   0.2298
   3.200   0.3416   0.00652   0.00188   0.0051  0.3405  0.9376  -1.1140   0.0000   0.0000   0.0000   0.2297
   3.300   0.3517   0.00662   0.00193   0.0054  0.3286  0.9424  -1.1481   0.0000   0.0000   0.0000   0.2294
   3.400   0.3621   0.00668   0.00197   0.0056  0.3200  0.9464  -1.1827   0.0000   0.0000   0.0000   0.2292
   3.500   0.3736   0.00677   0.00202   0.0056  0.3076  0.9500  -1.2195   0.0000   0.0000   0.0000   0.2298
   3.600   0.3853   0.00687   0.00208   0.0055  0.2961  0.9534  -1.2589   0.0000   0.0000   0.0000   0.2304
   3.700   0.3968   0.00697   0.00214   0.0054  0.2840  0.9568  -1.3007   0.0000   0.0000   0.0000   0.2309
   3.800   0.4080   0.00707   0.00219   0.0054  0.2727  0.9605  -1.3421   0.0000   0.0000   0.0000   0.2312
   3.900   0.4188   0.00715   0.00224   0.0056  0.2637  0.9641  -1.3831   0.0000   0.0000   0.0000   0.2312
   4.000   0.4286   0.00727   0.00231   0.0058  0.2518  0.9677  -1.4227   0.0000   0.0000   0.0000   0.2307
   4.100   0.4397   0.00735   0.00237   0.0059  0.2425  0.9705  -1.4648   0.0000   0.0000   0.0000   0.2309
   4.200   0.4531   0.00748   0.00243   0.0054  0.2291  0.9723  -1.5117   0.0000   0.0000   0.0000   0.2324
   4.300   0.4667   0.00759   0.00250   0.0048  0.2180  0.9739  -1.5595   0.0000   0.0000   0.0000   0.2339
   4.400   0.4800   0.00771   0.00257   0.0043  0.2067  0.9755  -1.6106   0.0000   0.0000   0.0000   0.2352
   4.500   0.4932   0.00783   0.00264   0.0039  0.1961  0.9771  -1.6639   0.0000   0.0000   0.0000   0.2364
   4.600   0.5067   0.00793   0.00271   0.0033  0.1870  0.9787  -1.7182   0.0000   0.0000   0.0000   0.2375
   4.700   0.5199   0.00809   0.00279   0.0028  0.1740  0.9803  -1.7724   0.0000   0.0000   0.0000   0.2386
   4.800   0.5336   0.00819   0.00286   0.0023  0.1661  0.9816  -1.8284   0.0000   0.0000   0.0000   0.2398
   4.900   0.5468   0.00834   0.00295   0.0017  0.1548  0.9829  -1.8838   0.0000   0.0000   0.0000   0.2408
   5.000   0.5602   0.00845   0.00303   0.0012  0.1460  0.9843  -1.9399   0.0000   0.0000   0.0000   0.2417
   5.100   0.5732   0.00856   0.00311   0.0008  0.1385  0.9857  -1.9959   0.0000   0.0000   0.0000   0.2425
   5.200   0.5857   0.00871   0.00320   0.0005  0.1289  0.9872  -2.0508   0.0000   0.0000   0.0000   0.2430
   5.300   0.5979   0.00881   0.00328   0.0002  0.1231  0.9887  -2.1057   0.0000   0.0000   0.0000   0.2434
   5.400   0.6106   0.00892   0.00337  -0.0002  0.1169  0.9898  -2.1646   0.0000   0.0000   0.0000   0.2439
   5.500   0.6248   0.00908   0.00346  -0.0009  0.1079  0.9903  -2.2319   0.0000   0.0000   0.0000   0.2450
   5.600   0.6392   0.00919   0.00355  -0.0016  0.1017  0.9909  -2.3005   0.0000   0.0000   0.0000   0.2461
   5.700   0.6534   0.00930   0.00363  -0.0024  0.0963  0.9915  -2.3693   0.0000   0.0000   0.0000   0.2471
   5.800   0.6673   0.00946   0.00373  -0.0030  0.0894  0.9922  -2.4378   0.0000   0.0000   0.0000   0.2479
   5.900   0.6814   0.00958   0.00383  -0.0037  0.0832  0.9929  -2.5071   0.0000   0.0000   0.0000   0.2488
   6.000   0.6955   0.00967   0.00391  -0.0044  0.0804  0.9936  -2.5778   0.0000   0.0000   0.0000   0.2496
   6.100   0.7093   0.00979   0.00402  -0.0050  0.0764  0.9943  -2.6481   0.0000   0.0000   0.0000   0.2503
   6.200   0.7229   0.00994   0.00412  -0.0056  0.0714  0.9951  -2.7181   0.0000   0.0000   0.0000   0.2509
   6.300   0.7366   0.01008   0.00424  -0.0062  0.0661  0.9959  -2.7880   0.0000   0.0000   0.0000   0.2515
   6.400   0.7505   0.01016   0.00433  -0.0069  0.0646  0.9967  -2.8607   0.0000   0.0000   0.0000   0.2521
   6.500   0.7641   0.01027   0.00442  -0.0075  0.0623  0.9975  -2.9332   0.0000   0.0000   0.0000   0.2526
   6.600   0.7776   0.01040   0.00453  -0.0080  0.0593  0.9982  -3.0055   0.0000   0.0000   0.0000   0.2531
   6.700   0.7909   0.01057   0.00465  -0.0086  0.0554  0.9988  -3.0772   0.0000   0.0000   0.0000   0.2535
   6.800   0.8043   0.01073   0.00480  -0.0091  0.0517  0.9994  -3.1496   0.0000   0.0000   0.0000   0.2539
   6.900   0.8180   0.01081   0.00488  -0.0097  0.0508  0.9999  -3.2336   0.0000   0.0000   0.0000   0.2544
   7.000   0.8274   0.01089   0.00497  -0.0094  0.0497  1.0000  -3.3032   0.0000   0.0000   0.0000   0.2538
   7.100   0.8360   0.01098   0.00506  -0.0089  0.0484  1.0000  -3.3703   0.0000   0.0000   0.0000   0.2530
   7.200   0.8444   0.01109   0.00517  -0.0084  0.0469  1.0000  -3.4372   0.0000   0.0000   0.0000   0.2522
   7.300   0.8526   0.01121   0.00527  -0.0079  0.0453  1.0000  -3.5038   0.0000   0.0000   0.0000   0.2513
   7.400   0.8607   0.01136   0.00540  -0.0073  0.0434  1.0000  -3.5695   0.0000   0.0000   0.0000   0.2505
   7.500   0.8685   0.01154   0.00557  -0.0067  0.0410  1.0000  -3.6324   0.0000   0.0000   0.0000   0.2496
   7.600   0.8768   0.01166   0.00571  -0.0061  0.0400  1.0000  -3.6994   0.0000   0.0000   0.0000   0.2488
   7.700   0.8855   0.01174   0.00579  -0.0056  0.0396  1.0000  -3.7702   0.0000   0.0000   0.0000   0.2481
   7.800   0.8942   0.01182   0.00588  -0.0052  0.0391  1.0000  -3.8411   0.0000   0.0000   0.0000   0.2474
   7.900   0.9028   0.01192   0.00599  -0.0047  0.0384  1.0000  -3.9120   0.0000   0.0000   0.0000   0.2467
   8.000   0.9114   0.01202   0.00609  -0.0042  0.0376  1.0000  -3.9831   0.0000   0.0000   0.0000   0.2460
   8.100   0.9198   0.01213   0.00621  -0.0037  0.0368  1.0000  -4.0544   0.0000   0.0000   0.0000   0.2453
   8.200   0.9282   0.01226   0.00633  -0.0032  0.0358  1.0000  -4.1259   0.0000   0.0000   0.0000   0.2446
   8.300   0.9365   0.01240   0.00645  -0.0026  0.0348  1.0000  -4.1970   0.0000   0.0000   0.0000   0.2439
   8.400   0.9445   0.01256   0.00661  -0.0021  0.0336  1.0000  -4.2668   0.0000   0.0000   0.0000   0.2431
   8.500   0.9521   0.01278   0.00682  -0.0014  0.0322  1.0000  -4.3324   0.0000   0.0000   0.0000   0.2423
   8.600   0.9596   0.01301   0.00707  -0.0008  0.0310  1.0000  -4.3970   0.0000   0.0000   0.0000   0.2415
   8.700   0.9687   0.01309   0.00717  -0.0004  0.0308  1.0000  -4.4741   0.0000   0.0000   0.0000   0.2410
   8.800   0.9776   0.01318   0.00727   0.0001  0.0305  1.0000  -4.5508   0.0000   0.0000   0.0000   0.2404
   8.900   0.9864   0.01329   0.00739   0.0005  0.0301  1.0000  -4.6272   0.0000   0.0000   0.0000   0.2399
   9.000   0.9952   0.01341   0.00751   0.0009  0.0297  1.0000  -4.7036   0.0000   0.0000   0.0000   0.2393
   9.100   1.0040   0.01353   0.00765   0.0013  0.0292  1.0000  -4.7801   0.0000   0.0000   0.0000   0.2388
   9.200   1.0127   0.01365   0.00778   0.0018  0.0287  1.0000  -4.8570   0.0000   0.0000   0.0000   0.2383
   9.300   1.0214   0.01379   0.00792   0.0022  0.0282  1.0000  -4.9342   0.0000   0.0000   0.0000   0.2377
   9.400   1.0300   0.01393   0.00807   0.0027  0.0277  1.0000  -5.0115   0.0000   0.0000   0.0000   0.2372
   9.500   1.0386   0.01408   0.00822   0.0031  0.0272  1.0000  -5.0890   0.0000   0.0000   0.0000   0.2367
   9.600   1.0471   0.01425   0.00839   0.0035  0.0266  1.0000  -5.1661   0.0000   0.0000   0.0000   0.2362
   9.700   1.0555   0.01444   0.00858   0.0040  0.0260  1.0000  -5.2419   0.0000   0.0000   0.0000   0.2356
   9.800   1.0634   0.01468   0.00882   0.0045  0.0253  1.0000  -5.3164   0.0000   0.0000   0.0000   0.2350
   9.900   1.0707   0.01499   0.00915   0.0051  0.0245  1.0000  -5.3915   0.0000   0.0000   0.0000   0.2344
  10.000   1.0771   0.01538   0.00958   0.0059  0.0238  1.0000  -5.4606   0.0000   0.0000   0.0000   0.2336
  10.100   1.0864   0.01550   0.00973   0.0062  0.0237  1.0000  -5.5529   0.0000   0.0000   0.0000   0.2332
  10.200   1.0956   0.01563   0.00987   0.0065  0.0235  1.0000  -5.6453   0.0000   0.0000   0.0000   0.2329
  10.300   1.1048   0.01576   0.01002   0.0068  0.0233  1.0000  -5.7378   0.0000   0.0000   0.0000   0.2325
  10.400   1.1138   0.01591   0.01018   0.0071  0.0231  1.0000  -5.8303   0.0000   0.0000   0.0000   0.2321
  10.500   1.1228   0.01607   0.01035   0.0074  0.0229  1.0000  -5.9226   0.0000   0.0000   0.0000   0.2318
  10.600   1.1317   0.01623   0.01053   0.0078  0.0226  1.0000  -6.0150   0.0000   0.0000   0.0000   0.2314
  10.700   1.1405   0.01640   0.01072   0.0081  0.0223  1.0000  -6.1075   0.0000   0.0000   0.0000   0.2310
  10.800   1.1493   0.01658   0.01091   0.0084  0.0221  1.0000  -6.2001   0.0000   0.0000   0.0000   0.2306
  10.900   1.1580   0.01676   0.01111   0.0088  0.0218  1.0000  -6.2931   0.0000   0.0000   0.0000   0.2303
  11.000   1.1668   0.01694   0.01130   0.0091  0.0215  1.0000  -6.3869   0.0000   0.0000   0.0000   0.2299
  11.100   1.1755   0.01712   0.01149   0.0094  0.0212  1.0000  -6.4817   0.0000   0.0000   0.0000   0.2295
  11.200   1.1841   0.01730   0.01168   0.0098  0.0208  1.0000  -6.5771   0.0000   0.0000   0.0000   0.2292
  11.300   1.1927   0.01750   0.01188   0.0101  0.0205  1.0000  -6.6723   0.0000   0.0000   0.0000   0.2288
  11.400   1.2010   0.01770   0.01209   0.0105  0.0202  1.0000  -6.7672   0.0000   0.0000   0.0000   0.2284
  11.500   1.2092   0.01793   0.01233   0.0109  0.0199  1.0000  -6.8606   0.0000   0.0000   0.0000   0.2280
  11.600   1.2168   0.01819   0.01260   0.0113  0.0195  1.0000  -6.9509   0.0000   0.0000   0.0000   0.2275
  11.700   1.2238   0.01852   0.01295   0.0118  0.0191  1.0000  -7.0354   0.0000   0.0000   0.0000   0.2270
  11.800   1.2296   0.01894   0.01340   0.0125  0.0186  1.0000  -7.1103   0.0000   0.0000   0.0000   0.2263
  11.900   1.2336   0.01950   0.01402   0.0135  0.0182  1.0000  -7.1709   0.0000   0.0000   0.0000   0.2255
  12.000   1.2378   0.02002   0.01460   0.0143  0.0179  1.0000  -7.2344   0.0000   0.0000   0.0000   0.2247
  12.100   1.2459   0.02022   0.01481   0.0147  0.0178  1.0000  -7.3308   0.0000   0.0000   0.0000   0.2243
  12.200   1.2539   0.02042   0.01503   0.0151  0.0178  1.0000  -7.4266   0.0000   0.0000   0.0000   0.2239
  12.300   1.2617   0.02063   0.01526   0.0155  0.0177  1.0000  -7.5220   0.0000   0.0000   0.0000   0.2235
  12.400   1.2694   0.02085   0.01550   0.0159  0.0176  1.0000  -7.6165   0.0000   0.0000   0.0000   0.2231
  12.500   1.2768   0.02108   0.01576   0.0164  0.0175  1.0000  -7.7102   0.0000   0.0000   0.0000   0.2226
  12.600   1.2840   0.02132   0.01602   0.0169  0.0174  1.0000  -7.8030   0.0000   0.0000   0.0000   0.2222
  12.700   1.2910   0.02157   0.01630   0.0173  0.0172  1.0000  -7.8947   0.0000   0.0000   0.0000   0.2217
  12.800   1.2978   0.02183   0.01658   0.0179  0.0171  1.0000  -7.9854   0.0000   0.0000   0.0000   0.2212
  12.900   1.3043   0.02210   0.01688   0.0184  0.0170  1.0000  -8.0745   0.0000   0.0000   0.0000   0.2207
  13.000   1.3099   0.02237   0.01717   0.0191  0.0168  1.0000  -8.1596   0.0000   0.0000   0.0000   0.2201
  13.100   1.3151   0.02265   0.01748   0.0199  0.0167  1.0000  -8.2427   0.0000   0.0000   0.0000   0.2194
  13.200   1.3201   0.02295   0.01780   0.0207  0.0166  1.0000  -8.3245   0.0000   0.0000   0.0000   0.2187
  13.300   1.3249   0.02325   0.01813   0.0214  0.0164  1.0000  -8.4058   0.0000   0.0000   0.0000   0.2180
  13.400   1.3296   0.02357   0.01847   0.0222  0.0163  1.0000  -8.4865   0.0000   0.0000   0.0000   0.2173
  13.500   1.3342   0.02390   0.01883   0.0230  0.0162  1.0000  -8.5667   0.0000   0.0000   0.0000   0.2167
  13.600   1.3387   0.02424   0.01920   0.0237  0.0160  1.0000  -8.6471   0.0000   0.0000   0.0000   0.2160
  13.700   1.3432   0.02459   0.01959   0.0244  0.0159  1.0000  -8.7270   0.0000   0.0000   0.0000   0.2154
  13.800   1.3474   0.02497   0.01999   0.0250  0.0158  1.0000  -8.8057   0.0000   0.0000   0.0000   0.2148
  13.900   1.3515   0.02535   0.02040   0.0257  0.0156  1.0000  -8.8844   0.0000   0.0000   0.0000   0.2142
  14.000   1.3556   0.02576   0.02083   0.0263  0.0155  1.0000  -8.9626   0.0000   0.0000   0.0000   0.2136
  14.100   1.3595   0.02618   0.02128   0.0269  0.0154  1.0000  -9.0399   0.0000   0.0000   0.0000   0.2130
  14.200   1.3633   0.02662   0.02175   0.0275  0.0153  1.0000  -9.1167   0.0000   0.0000   0.0000   0.2125
  14.300   1.3667   0.02709   0.02225   0.0281  0.0151  1.0000  -9.1914   0.0000   0.0000   0.0000   0.2119
  14.400   1.3699   0.02760   0.02278   0.0286  0.0150  1.0000  -9.2643   0.0000   0.0000   0.0000   0.2114
  14.500   1.3729   0.02813   0.02334   0.0291  0.0149  1.0000  -9.3356   0.0000   0.0000   0.0000   0.2109
  14.600   1.3755   0.02872   0.02395   0.0296  0.0148  1.0000  -9.4041   0.0000   0.0000   0.0000   0.2104
  14.700   1.3778   0.02934   0.02461   0.0300  0.0147  1.0000  -9.4706   0.0000   0.0000   0.0000   0.2099
  14.800   1.3796   0.03003   0.02533   0.0304  0.0146  1.0000  -9.5325   0.0000   0.0000   0.0000   0.2094
  14.900   1.3809   0.03077   0.02610   0.0308  0.0145  1.0000  -9.5906   0.0000   0.0000   0.0000   0.2090
  15.000   1.3815   0.03160   0.02697   0.0311  0.0143  1.0000  -9.6429   0.0000   0.0000   0.0000   0.2085


