xflr5 v6.61

 Calculated polar for: NACA 4412

 1 1 Reynolds number fixed          Mach number fixed         

 xtrf =   1.000 (top)        1.000 (bottom)
 Mach =   0.000     Re =     1.400 e 6     Ncrit =   9.000

  alpha     CL        CD       CDp       Cm    Top Xtr Bot Xtr   Cpmin    Chinge    XCp    
 ------- -------- --------- --------- -------- ------- ------- -------- --------- ---------
 -15.000  -1.0450   0.03623   0.03344  -0.0971  1.0000  0.0123  -12.1614   0.0000   0.0000   0.0000   0.1381
 -14.900  -1.0637   0.03371   0.03082  -0.0983  1.0000  0.0123  -12.2971   0.0000   0.0000   0.0000   0.1391
 -14.800  -1.0777   0.03271   0.02978  -0.0962  1.0000  0.0123  -12.3543   0.0000   0.0000   0.0000   0.1425
 -14.700  -1.0860   0.03174   0.02877  -0.0948  1.0000  0.0123  -12.3684   0.0000   0.0000   0.0000   0.1447
 -14.600  -1.0929   0.03093   0.02791  -0.0933  1.0000  0.0123  -12.3686   0.0000   0.0000   0.0000   0.1469
 -14.500  -1.0985   0.03021   0.02714  -0.0917  1.0000  0.0123  -12.3556   0.0000   0.0000   0.0000   0.1490
 -14.400  -1.1026   0.02955   0.02645  -0.0902  1.0000  0.0124  -12.3301   0.0000   0.0000   0.0000   0.1509
 -14.300  -1.0958   0.02867   0.02553  -0.0909  0.9995  0.0125  -12.2301   0.0000   0.0000   0.0000   0.1499
 -14.200  -1.0869   0.02790   0.02471  -0.0917  0.9989  0.0125  -12.1130   0.0000   0.0000   0.0000   0.1486
 -14.100  -1.0776   0.02721   0.02398  -0.0925  0.9983  0.0126  -11.9904   0.0000   0.0000   0.0000   0.1473
 -14.000  -1.0679   0.02659   0.02331  -0.0932  0.9978  0.0127  -11.8641   0.0000   0.0000   0.0000   0.1460
 -13.900  -1.0578   0.02600   0.02269  -0.0939  0.9972  0.0128  -11.7353   0.0000   0.0000   0.0000   0.1446
 -13.800  -1.0475   0.02545   0.02210  -0.0946  0.9968  0.0128  -11.6044   0.0000   0.0000   0.0000   0.1432
 -13.700  -1.0369   0.02492   0.02154  -0.0953  0.9963  0.0129  -11.4719   0.0000   0.0000   0.0000   0.1418
 -13.600  -1.0261   0.02442   0.02100  -0.0960  0.9959  0.0130  -11.3383   0.0000   0.0000   0.0000   0.1403
 -13.500  -1.0151   0.02394   0.02047  -0.0966  0.9956  0.0131  -11.2038   0.0000   0.0000   0.0000   0.1387
 -13.400  -1.0040   0.02347   0.01997  -0.0973  0.9953  0.0132  -11.0688   0.0000   0.0000   0.0000   0.1371
 -13.300  -0.9940   0.02303   0.01949  -0.0976  0.9945  0.0133  -10.9418   0.0000   0.0000   0.0000   0.1359
 -13.200  -0.9837   0.02260   0.01902  -0.0980  0.9937  0.0134  -10.8133   0.0000   0.0000   0.0000   0.1346
 -13.100  -0.9731   0.02218   0.01856  -0.0985  0.9929  0.0135  -10.6833   0.0000   0.0000   0.0000   0.1332
 -13.000  -0.9622   0.02177   0.01811  -0.0989  0.9923  0.0136  -10.5521   0.0000   0.0000   0.0000   0.1317
 -12.900  -0.9511   0.02137   0.01767  -0.0994  0.9916  0.0137  -10.4200   0.0000   0.0000   0.0000   0.1301
 -12.800  -0.9398   0.02099   0.01725  -0.0999  0.9910  0.0138  -10.2869   0.0000   0.0000   0.0000   0.1284
 -12.700  -0.9282   0.02062   0.01684  -0.1004  0.9905  0.0138  -10.1528   0.0000   0.0000   0.0000   0.1266
 -12.600  -0.9164   0.02028   0.01645  -0.1010  0.9900  0.0139  -10.0178   0.0000   0.0000   0.0000   0.1247
 -12.500  -0.9045   0.01995   0.01608  -0.1015  0.9896  0.0140  -9.8818   0.0000   0.0000   0.0000   0.1228
 -12.400  -0.8924   0.01964   0.01573  -0.1020  0.9892  0.0141  -9.7446   0.0000   0.0000   0.0000   0.1207
 -12.300  -0.8800   0.01935   0.01541  -0.1026  0.9888  0.0141  -9.6064   0.0000   0.0000   0.0000   0.1186
 -12.200  -0.8687   0.01881   0.01482  -0.1032  0.9884  0.0143  -9.4857   0.0000   0.0000   0.0000   0.1164
 -12.100  -0.8577   0.01819   0.01415  -0.1038  0.9881  0.0145  -9.3742   0.0000   0.0000   0.0000   0.1142
 -12.000  -0.8458   0.01776   0.01369  -0.1045  0.9878  0.0146  -9.2518   0.0000   0.0000   0.0000   0.1119
 -11.900  -0.8334   0.01741   0.01332  -0.1051  0.9875  0.0148  -9.1236   0.0000   0.0000   0.0000   0.1094
 -11.800  -0.8208   0.01712   0.01300  -0.1057  0.9872  0.0149  -8.9929   0.0000   0.0000   0.0000   0.1068
 -11.700  -0.8099   0.01687   0.01273  -0.1058  0.9861  0.0150  -8.8719   0.0000   0.0000   0.0000   0.1049
 -11.600  -0.7992   0.01663   0.01247  -0.1060  0.9849  0.0152  -8.7519   0.0000   0.0000   0.0000   0.1031
 -11.500  -0.7878   0.01640   0.01222  -0.1062  0.9839  0.0153  -8.6286   0.0000   0.0000   0.0000   0.1009
 -11.400  -0.7762   0.01618   0.01198  -0.1065  0.9829  0.0154  -8.5044   0.0000   0.0000   0.0000   0.0986
 -11.300  -0.7644   0.01597   0.01175  -0.1068  0.9821  0.0156  -8.3801   0.0000   0.0000   0.0000   0.0961
 -11.200  -0.7524   0.01575   0.01151  -0.1072  0.9812  0.0158  -8.2558   0.0000   0.0000   0.0000   0.0935
 -11.100  -0.7404   0.01555   0.01128  -0.1075  0.9804  0.0159  -8.1323   0.0000   0.0000   0.0000   0.0908
 -11.000  -0.7284   0.01534   0.01105  -0.1078  0.9797  0.0161  -8.0101   0.0000   0.0000   0.0000   0.0880
 -10.900  -0.7165   0.01514   0.01082  -0.1081  0.9789  0.0162  -7.8892   0.0000   0.0000   0.0000   0.0852
 -10.800  -0.7047   0.01496   0.01060  -0.1084  0.9781  0.0164  -7.7695   0.0000   0.0000   0.0000   0.0824
 -10.700  -0.6946   0.01479   0.01041  -0.1083  0.9764  0.0165  -7.6593   0.0000   0.0000   0.0000   0.0804
 -10.600  -0.6845   0.01463   0.01022  -0.1081  0.9744  0.0166  -7.5499   0.0000   0.0000   0.0000   0.0784
 -10.500  -0.6748   0.01432   0.00988  -0.1080  0.9726  0.0167  -7.4490   0.0000   0.0000   0.0000   0.0763
 -10.400  -0.6651   0.01395   0.00948  -0.1079  0.9709  0.0170  -7.3507   0.0000   0.0000   0.0000   0.0741
 -10.300  -0.6549   0.01370   0.00921  -0.1079  0.9694  0.0172  -7.2443   0.0000   0.0000   0.0000   0.0717
 -10.200  -0.6441   0.01349   0.00898  -0.1079  0.9681  0.0174  -7.1338   0.0000   0.0000   0.0000   0.0689
 -10.100  -0.6339   0.01332   0.00880  -0.1078  0.9664  0.0175  -7.0257   0.0000   0.0000   0.0000   0.0665
 -10.000  -0.6242   0.01317   0.00863  -0.1076  0.9641  0.0177  -6.9201   0.0000   0.0000   0.0000   0.0642
  -9.900  -0.6141   0.01301   0.00846  -0.1074  0.9619  0.0179  -6.8136   0.0000   0.0000   0.0000   0.0617
  -9.800  -0.6038   0.01286   0.00829  -0.1073  0.9599  0.0181  -6.7073   0.0000   0.0000   0.0000   0.0590
  -9.700  -0.5934   0.01271   0.00812  -0.1072  0.9582  0.0183  -6.6007   0.0000   0.0000   0.0000   0.0561
  -9.600  -0.5828   0.01257   0.00795  -0.1071  0.9565  0.0185  -6.4943   0.0000   0.0000   0.0000   0.0530
  -9.500  -0.5727   0.01243   0.00779  -0.1069  0.9542  0.0187  -6.3910   0.0000   0.0000   0.0000   0.0501
  -9.400  -0.5625   0.01230   0.00763  -0.1067  0.9515  0.0189  -6.2884   0.0000   0.0000   0.0000   0.0471
  -9.300  -0.5523   0.01217   0.00748  -0.1065  0.9489  0.0190  -6.1857   0.0000   0.0000   0.0000   0.0440
  -9.200  -0.5418   0.01205   0.00733  -0.1064  0.9465  0.0192  -6.0823   0.0000   0.0000   0.0000   0.0405
  -9.100  -0.5314   0.01191   0.00716  -0.1062  0.9441  0.0193  -5.9811   0.0000   0.0000   0.0000   0.0370
  -9.000  -0.5219   0.01163   0.00685  -0.1060  0.9408  0.0197  -5.8941   0.0000   0.0000   0.0000   0.0338
  -8.900  -0.5119   0.01144   0.00665  -0.1059  0.9378  0.0200  -5.8012   0.0000   0.0000   0.0000   0.0301
  -8.800  -0.5015   0.01130   0.00650  -0.1057  0.9350  0.0203  -5.7052   0.0000   0.0000   0.0000   0.0261
  -8.700  -0.4909   0.01119   0.00636  -0.1056  0.9326  0.0205  -5.6082   0.0000   0.0000   0.0000   0.0218
  -8.600  -0.4801   0.01108   0.00624  -0.1055  0.9300  0.0208  -5.5116   0.0000   0.0000   0.0000   0.0171
  -8.500  -0.4694   0.01097   0.00612  -0.1055  0.9273  0.0211  -5.4158   0.0000   0.0000   0.0000   0.0122
  -8.400  -0.4586   0.01087   0.00600  -0.1054  0.9249  0.0214  -5.3209   0.0000   0.0000   0.0000   0.0071
  -8.300  -0.4478   0.01076   0.00587  -0.1053  0.9226  0.0217  -5.2268   0.0000   0.0000   0.0000   0.0017
  -8.200  -0.4369   0.01067   0.00575  -0.1052  0.9205  0.0219  -5.1333   0.0000   0.0000   0.0000  -0.0041
  -8.100  -0.4259   0.01058   0.00564  -0.1052  0.9181  0.0221  -5.0398   0.0000   0.0000   0.0000  -0.0102
  -8.000  -0.4152   0.01042   0.00546  -0.1051  0.9154  0.0224  -4.9513   0.0000   0.0000   0.0000  -0.0165
  -7.900  -0.4047   0.01023   0.00525  -0.1051  0.9127  0.0229  -4.8641   0.0000   0.0000   0.0000  -0.0229
  -7.800  -0.3940   0.01010   0.00511  -0.1050  0.9101  0.0233  -4.7736   0.0000   0.0000   0.0000  -0.0299
  -7.700  -0.3831   0.01000   0.00499  -0.1049  0.9078  0.0236  -4.6825   0.0000   0.0000   0.0000  -0.0374
  -7.600  -0.3721   0.00990   0.00489  -0.1049  0.9052  0.0240  -4.5912   0.0000   0.0000   0.0000  -0.0455
  -7.500  -0.3610   0.00981   0.00478  -0.1049  0.9024  0.0244  -4.5009   0.0000   0.0000   0.0000  -0.0541
  -7.400  -0.3500   0.00973   0.00468  -0.1048  0.8996  0.0247  -4.4114   0.0000   0.0000   0.0000  -0.0633
  -7.300  -0.3390   0.00965   0.00458  -0.1048  0.8970  0.0251  -4.3226   0.0000   0.0000   0.0000  -0.0730
  -7.200  -0.3279   0.00959   0.00448  -0.1047  0.8946  0.0254  -4.2340   0.0000   0.0000   0.0000  -0.0835
  -7.100  -0.3170   0.00945   0.00433  -0.1047  0.8918  0.0259  -4.1490   0.0000   0.0000   0.0000  -0.0946
  -7.000  -0.3061   0.00931   0.00419  -0.1047  0.8888  0.0265  -4.0639   0.0000   0.0000   0.0000  -0.1064
  -6.900  -0.2951   0.00922   0.00409  -0.1046  0.8858  0.0270  -3.9772   0.0000   0.0000   0.0000  -0.1192
  -6.800  -0.2841   0.00915   0.00400  -0.1046  0.8830  0.0275  -3.8909   0.0000   0.0000   0.0000  -0.1330
  -6.700  -0.2729   0.00908   0.00391  -0.1046  0.8801  0.0280  -3.8078   0.0000   0.0000   0.0000  -0.1483
  -6.600  -0.2617   0.00900   0.00383  -0.1045  0.8769  0.0285  -3.7278   0.0000   0.0000   0.0000  -0.1649
  -6.500  -0.2505   0.00894   0.00375  -0.1045  0.8737  0.0289  -3.6485   0.0000   0.0000   0.0000  -0.1829
  -6.400  -0.2395   0.00886   0.00363  -0.1045  0.8707  0.0294  -3.5717   0.0000   0.0000   0.0000  -0.2022
  -6.300  -0.2286   0.00873   0.00350  -0.1044  0.8677  0.0302  -3.4958   0.0000   0.0000   0.0000  -0.2234
  -6.200  -0.2174   0.00865   0.00341  -0.1044  0.8645  0.0309  -3.4180   0.0000   0.0000   0.0000  -0.2472
  -6.100  -0.2062   0.00858   0.00334  -0.1044  0.8612  0.0315  -3.3406   0.0000   0.0000   0.0000  -0.2736
  -6.000  -0.1951   0.00853   0.00326  -0.1044  0.8580  0.0322  -3.2638   0.0000   0.0000   0.0000  -0.3029
  -5.900  -0.1838   0.00848   0.00319  -0.1044  0.8549  0.0328  -3.1874   0.0000   0.0000   0.0000  -0.3362
  -5.800  -0.1726   0.00841   0.00311  -0.1043  0.8513  0.0335  -3.1123   0.0000   0.0000   0.0000  -0.3739
  -5.700  -0.1616   0.00830   0.00300  -0.1043  0.8477  0.0345  -3.0393   0.0000   0.0000   0.0000  -0.4157
  -5.600  -0.1505   0.00824   0.00292  -0.1043  0.8443  0.0354  -2.9654   0.0000   0.0000   0.0000  -0.4638
  -5.500  -0.1392   0.00818   0.00285  -0.1043  0.8408  0.0362  -2.8914   0.0000   0.0000   0.0000  -0.5210
  -5.400  -0.1280   0.00813   0.00279  -0.1043  0.8371  0.0370  -2.8181   0.0000   0.0000   0.0000  -0.5883
  -5.300  -0.1167   0.00809   0.00273  -0.1042  0.8334  0.0377  -2.7455   0.0000   0.0000   0.0000  -0.6680
  -5.200  -0.1057   0.00800   0.00263  -0.1042  0.8300  0.0390  -2.6776   0.0000   0.0000   0.0000  -0.7629
  -5.100  -0.0944   0.00793   0.00256  -0.1042  0.8263  0.0402  -2.6104   0.0000   0.0000   0.0000  -0.8829
  -5.000  -0.0832   0.00788   0.00250  -0.1042  0.8224  0.0413  -2.5437   0.0000   0.0000   0.0000  -1.0347
  -4.900  -0.0720   0.00785   0.00244  -0.1042  0.8186  0.0423  -2.4777   0.0000   0.0000   0.0000  -1.2323
  -4.800  -0.0607   0.00780   0.00238  -0.1042  0.8148  0.0435  -2.4125   0.0000   0.0000   0.0000  -1.5070
  -4.700  -0.0496   0.00772   0.00230  -0.1041  0.8106  0.0451  -2.3484   0.0000   0.0000   0.0000  -1.9012
  -4.600  -0.0384   0.00768   0.00225  -0.1041  0.8066  0.0465  -2.2843   0.0000   0.0000   0.0000  -2.5208
  -4.500  -0.0272   0.00764   0.00219  -0.1041  0.8027  0.0478  -2.2203   0.0000   0.0000   0.0000  -3.6703
  -4.400  -0.0158   0.00761   0.00214  -0.1041  0.7984  0.0489  -2.1570   0.0000   0.0000   0.0000  -6.4673
  -4.300  -0.0048   0.00754   0.00208  -0.1041  0.7941  0.0511  -2.0964   0.0000   0.0000   0.0000  -22.0595
  -4.200   0.0065   0.00750   0.00203  -0.1041  0.7902  0.0529  -2.0379   0.0000   0.0000   0.0000  16.6811
  -4.100   0.0178   0.00746   0.00198  -0.1041  0.7858  0.0545  -1.9798   0.0000   0.0000   0.0000   6.2171
  -4.000   0.0289   0.00743   0.00193  -0.1040  0.7813  0.0565  -1.9230   0.0000   0.0000   0.0000   3.9150
  -3.900   0.0401   0.00737   0.00188  -0.1040  0.7771  0.0589  -1.8663   0.0000   0.0000   0.0000   2.8906
  -3.800   0.0514   0.00734   0.00184  -0.1040  0.7725  0.0610  -1.8098   0.0000   0.0000   0.0000   2.3097
  -3.700   0.0626   0.00732   0.00180  -0.1040  0.7679  0.0628  -1.7541   0.0000   0.0000   0.0000   1.9405
  -3.600   0.0738   0.00727   0.00175  -0.1040  0.7634  0.0661  -1.6991   0.0000   0.0000   0.0000   1.6827
  -3.500   0.0850   0.00723   0.00171  -0.1040  0.7586  0.0688  -1.6442   0.0000   0.0000   0.0000   1.4925
  -3.300   0.1075   0.00717   0.00163  -0.1040  0.7494  0.0746  -1.5423   0.0000   0.0000   0.0000   1.2318
  -3.200   0.1187   0.00714   0.00160  -0.1039  0.7444  0.0778  -1.4923   0.0000   0.0000   0.0000   1.1385
  -3.100   0.1298   0.00712   0.00156  -0.1039  0.7398  0.0807  -1.4428   0.0000   0.0000   0.0000   1.0614
  -3.000   0.1411   0.00708   0.00153  -0.1039  0.7347  0.0850  -1.3937   0.0000   0.0000   0.0000   0.9962
  -2.900   0.1522   0.00706   0.00150  -0.1039  0.7297  0.0886  -1.3451   0.0000   0.0000   0.0000   0.9410
  -2.800   0.1635   0.00703   0.00147  -0.1039  0.7249  0.0927  -1.2969   0.0000   0.0000   0.0000   0.8931
  -2.700   0.1747   0.00700   0.00144  -0.1039  0.7197  0.0971  -1.2491   0.0000   0.0000   0.0000   0.8514
  -2.600   0.1858   0.00700   0.00142  -0.1038  0.7148  0.1009  -1.2048   0.0000   0.0000   0.0000   0.8149
  -2.500   0.1970   0.00696   0.00139  -0.1039  0.7097  0.1065  -1.1607   0.0000   0.0000   0.0000   0.7823
  -2.400   0.2082   0.00695   0.00137  -0.1038  0.7043  0.1109  -1.1172   0.0000   0.0000   0.0000   0.7534
  -2.300   0.2194   0.00692   0.00135  -0.1038  0.6994  0.1167  -1.0741   0.0000   0.0000   0.0000   0.7274
  -2.200   0.2306   0.00690   0.00133  -0.1038  0.6940  0.1220  -1.0326   0.0000   0.0000   0.0000   0.7039
  -2.100   0.2416   0.00689   0.00131  -0.1038  0.6889  0.1280  -0.9932   0.0000   0.0000   0.0000   0.6827
  -2.000   0.2530   0.00686   0.00129  -0.1038  0.6837  0.1338  -0.9535   0.0000   0.0000   0.0000   0.6632
  -1.900   0.2640   0.00685   0.00128  -0.1038  0.6782  0.1402  -0.9147   0.0000   0.0000   0.0000   0.6455
  -1.800   0.2753   0.00684   0.00126  -0.1038  0.6731  0.1466  -0.8760   0.0000   0.0000   0.0000   0.6291
  -1.700   0.2864   0.00682   0.00125  -0.1038  0.6676  0.1538  -0.8391   0.0000   0.0000   0.0000   0.6141
  -1.500   0.3088   0.00679   0.00123  -0.1037  0.6571  0.1684  -0.7683   0.0000   0.0000   0.0000   0.5873
  -1.400   0.3198   0.00679   0.00122  -0.1037  0.6516  0.1758  -0.7335   0.0000   0.0000   0.0000   0.5753
  -1.300   0.3311   0.00677   0.00121  -0.1037  0.6465  0.1841  -0.6988   0.0000   0.0000   0.0000   0.5641
  -1.200   0.3422   0.00676   0.00121  -0.1037  0.6409  0.1925  -0.6760   0.0000   0.0000   0.0000   0.5536
  -1.100   0.3533   0.00676   0.00120  -0.1037  0.6358  0.2008  -0.6839   0.0000   0.0000   0.0000   0.5438
  -1.000   0.3645   0.00674   0.00120  -0.1037  0.6304  0.2102  -0.6919   0.0000   0.0000   0.0000   0.5346
  -0.800   0.3868   0.00672   0.00120  -0.1037  0.6200  0.2290  -0.7083   0.0000   0.0000   0.0000   0.5178
  -0.600   0.4090   0.00671   0.00120  -0.1037  0.6095  0.2500  -0.7247   0.0000   0.0000   0.0000   0.5029
  -0.500   0.4202   0.00670   0.00121  -0.1037  0.6043  0.2613  -0.7329   0.0000   0.0000   0.0000   0.4960
  -0.300   0.4424   0.00668   0.00122  -0.1036  0.5943  0.2848  -0.7500   0.0000   0.0000   0.0000   0.4832
  -0.200   0.4535   0.00668   0.00122  -0.1036  0.5891  0.2977  -0.7585   0.0000   0.0000   0.0000   0.4773
  -0.100   0.4645   0.00667   0.00123  -0.1036  0.5844  0.3115  -0.7670   0.0000   0.0000   0.0000   0.4717
   0.000   0.4757   0.00665   0.00124  -0.1036  0.5795  0.3265  -0.7756   0.0000   0.0000   0.0000   0.4664
   0.100   0.4867   0.00664   0.00125  -0.1036  0.5746  0.3432  -0.7843   0.0000   0.0000   0.0000   0.4613
   0.200   0.4978   0.00662   0.00126  -0.1036  0.5701  0.3616  -0.7932   0.0000   0.0000   0.0000   0.4564
   0.300   0.5089   0.00658   0.00127  -0.1036  0.5653  0.3838  -0.8021   0.0000   0.0000   0.0000   0.4518
   0.500   0.5306   0.00643   0.00130  -0.1036  0.5566  0.4636  -0.8196   0.0000   0.0000   0.0000   0.4432
   0.600   0.5413   0.00633   0.00133  -0.1036  0.5521  0.5155  -0.8287   0.0000   0.0000   0.0000   0.4392
   0.800   0.5628   0.00617   0.00138  -0.1035  0.5438  0.6084  -0.8468   0.0000   0.0000   0.0000   0.4315
   0.900   0.5735   0.00610   0.00141  -0.1035  0.5396  0.6507  -0.8558   0.0000   0.0000   0.0000   0.4278
   1.000   0.5840   0.00603   0.00144  -0.1033  0.5355  0.6935  -0.8650   0.0000   0.0000   0.0000   0.4243
   1.100   0.5944   0.00595   0.00147  -0.1032  0.5319  0.7374  -0.8743   0.0000   0.0000   0.0000   0.4208
   1.200   0.6047   0.00587   0.00150  -0.1030  0.5280  0.7823  -0.8835   0.0000   0.0000   0.0000   0.4174
   1.300   0.6142   0.00578   0.00154  -0.1026  0.5242  0.8299  -0.8924   0.0000   0.0000   0.0000   0.4140
   1.400   0.6228   0.00570   0.00158  -0.1019  0.5208  0.8791  -0.9008   0.0000   0.0000   0.0000   0.4105
   1.500   0.6306   0.00563   0.00162  -0.1010  0.5176  0.9258  -0.9091   0.0000   0.0000   0.0000   0.4070
   1.600   0.6422   0.00561   0.00164  -0.1010  0.5139  0.9634  -0.9195   0.0000   0.0000   0.0000   0.4039
   1.700   0.6590   0.00565   0.00166  -0.1022  0.5100  0.9848  -0.9329   0.0000   0.0000   0.0000   0.4016
   1.800   0.6755   0.00568   0.00168  -0.1034  0.5065  0.9958  -0.9465   0.0000   0.0000   0.0000   0.3995
   1.900   0.6899   0.00572   0.00169  -0.1041  0.5030  1.0000  -0.9589   0.0000   0.0000   0.0000   0.3973
   2.000   0.7006   0.00576   0.00171  -0.1040  0.4996  1.0000  -0.9692   0.0000   0.0000   0.0000   0.3947
   2.100   0.7112   0.00581   0.00174  -0.1039  0.4964  1.0000  -0.9796   0.0000   0.0000   0.0000   0.3922
   2.200   0.7222   0.00584   0.00176  -0.1039  0.4935  1.0000  -0.9904   0.0000   0.0000   0.0000   0.3898
   2.300   0.7331   0.00587   0.00178  -0.1038  0.4904  1.0000  -1.0013   0.0000   0.0000   0.0000   0.3875
   2.400   0.7440   0.00592   0.00180  -0.1037  0.4873  1.0000  -1.0122   0.0000   0.0000   0.0000   0.3853
   2.500   0.7547   0.00597   0.00183  -0.1036  0.4843  1.0000  -1.0234   0.0000   0.0000   0.0000   0.3830
   2.600   0.7656   0.00601   0.00186  -0.1036  0.4815  1.0000  -1.0347   0.0000   0.0000   0.0000   0.3809
   2.700   0.7766   0.00604   0.00188  -0.1035  0.4787  1.0000  -1.0462   0.0000   0.0000   0.0000   0.3788
   2.800   0.7875   0.00608   0.00191  -0.1035  0.4757  1.0000  -1.0580   0.0000   0.0000   0.0000   0.3768
   2.900   0.7984   0.00613   0.00194  -0.1034  0.4728  1.0000  -1.0698   0.0000   0.0000   0.0000   0.3748
   3.000   0.8091   0.00618   0.00197  -0.1033  0.4699  1.0000  -1.0817   0.0000   0.0000   0.0000   0.3729
   3.100   0.8202   0.00621   0.00199  -0.1033  0.4674  1.0000  -1.0943   0.0000   0.0000   0.0000   0.3711
   3.200   0.8312   0.00624   0.00202  -0.1033  0.4645  1.0000  -1.1068   0.0000   0.0000   0.0000   0.3693
   3.300   0.8421   0.00629   0.00205  -0.1032  0.4616  1.0000  -1.1197   0.0000   0.0000   0.0000   0.3675
   3.400   0.8529   0.00634   0.00209  -0.1031  0.4587  1.0000  -1.1326   0.0000   0.0000   0.0000   0.3657
   3.500   0.8638   0.00639   0.00212  -0.1031  0.4560  1.0000  -1.1461   0.0000   0.0000   0.0000   0.3640
   3.600   0.8749   0.00642   0.00215  -0.1031  0.4533  1.0000  -1.1599   0.0000   0.0000   0.0000   0.3624
   3.700   0.8858   0.00646   0.00218  -0.1030  0.4503  1.0000  -1.1741   0.0000   0.0000   0.0000   0.3608
   3.800   0.8966   0.00652   0.00222  -0.1030  0.4472  1.0000  -1.1886   0.0000   0.0000   0.0000   0.3592
   3.900   0.9073   0.00658   0.00226  -0.1029  0.4441  1.0000  -1.2035   0.0000   0.0000   0.0000   0.3577
   4.000   0.9184   0.00661   0.00229  -0.1029  0.4414  1.0000  -1.2196   0.0000   0.0000   0.0000   0.3562
   4.100   0.9294   0.00665   0.00233  -0.1028  0.4381  1.0000  -1.2366   0.0000   0.0000   0.0000   0.3547
   4.200   0.9401   0.00671   0.00237  -0.1028  0.4347  1.0000  -1.2550   0.0000   0.0000   0.0000   0.3533
   4.300   0.9507   0.00678   0.00241  -0.1027  0.4312  1.0000  -1.2770   0.0000   0.0000   0.0000   0.3518
   4.400   0.9618   0.00681   0.00245  -0.1027  0.4278  1.0000  -1.3030   0.0000   0.0000   0.0000   0.3505
   4.500   0.9726   0.00686   0.00249  -0.1026  0.4237  1.0000  -1.3310   0.0000   0.0000   0.0000   0.3491
   4.600   0.9831   0.00694   0.00253  -0.1025  0.4195  1.0000  -1.3609   0.0000   0.0000   0.0000   0.3477
   4.700   0.9940   0.00698   0.00257  -0.1025  0.4156  1.0000  -1.3926   0.0000   0.0000   0.0000   0.3465
   4.800   1.0048   0.00703   0.00261  -0.1024  0.4110  1.0000  -1.4260   0.0000   0.0000   0.0000   0.3452
   5.000   1.0261   0.00716   0.00271  -0.1022  0.4019  1.0000  -1.4959   0.0000   0.0000   0.0000   0.3427
   5.100   1.0367   0.00722   0.00275  -0.1022  0.3968  1.0000  -1.5336   0.0000   0.0000   0.0000   0.3414
   5.200   1.0472   0.00730   0.00280  -0.1020  0.3920  1.0000  -1.5714   0.0000   0.0000   0.0000   0.3402
   5.300   1.0580   0.00736   0.00285  -0.1020  0.3868  1.0000  -1.6100   0.0000   0.0000   0.0000   0.3391
   5.500   1.0789   0.00751   0.00296  -0.1018  0.3760  1.0000  -1.6915   0.0000   0.0000   0.0000   0.3368
   5.600   1.0892   0.00760   0.00302  -0.1016  0.3699  1.0000  -1.7342   0.0000   0.0000   0.0000   0.3356
   5.700   1.0996   0.00767   0.00308  -0.1015  0.3642  1.0000  -1.7776   0.0000   0.0000   0.0000   0.3345
   5.800   1.1098   0.00777   0.00314  -0.1014  0.3576  1.0000  -1.8216   0.0000   0.0000   0.0000   0.3334
   5.900   1.1201   0.00786   0.00321  -0.1012  0.3513  1.0000  -1.8677   0.0000   0.0000   0.0000   0.3323
   6.000   1.1300   0.00797   0.00329  -0.1010  0.3441  1.0000  -1.9131   0.0000   0.0000   0.0000   0.3312
   6.100   1.1402   0.00806   0.00336  -0.1009  0.3369  1.0000  -1.9598   0.0000   0.0000   0.0000   0.3302
   6.200   1.1501   0.00818   0.00344  -0.1007  0.3297  1.0000  -2.0059   0.0000   0.0000   0.0000   0.3291
   6.300   1.1599   0.00830   0.00352  -0.1005  0.3216  1.0000  -2.0541   0.0000   0.0000   0.0000   0.3281
   6.400   1.1698   0.00841   0.00360  -0.1003  0.3139  1.0000  -2.1034   0.0000   0.0000   0.0000   0.3271
   6.500   1.1794   0.00855   0.00370  -0.1001  0.3054  1.0000  -2.1523   0.0000   0.0000   0.0000   0.3260
   6.600   1.1888   0.00870   0.00380  -0.0998  0.2959  1.0000  -2.2023   0.0000   0.0000   0.0000   0.3250
   6.700   1.1983   0.00884   0.00390  -0.0995  0.2865  1.0000  -2.2545   0.0000   0.0000   0.0000   0.3240
   6.800   1.2076   0.00899   0.00401  -0.0992  0.2769  1.0000  -2.3065   0.0000   0.0000   0.0000   0.3230
   6.900   1.2167   0.00916   0.00412  -0.0989  0.2668  1.0000  -2.3584   0.0000   0.0000   0.0000   0.3220
   7.000   1.2257   0.00934   0.00425  -0.0986  0.2563  1.0000  -2.4103   0.0000   0.0000   0.0000   0.3210
   7.100   1.2345   0.00953   0.00438  -0.0982  0.2455  1.0000  -2.4624   0.0000   0.0000   0.0000   0.3200
   7.200   1.2432   0.00972   0.00451  -0.0979  0.2341  1.0000  -2.5169   0.0000   0.0000   0.0000   0.3190
   7.300   1.2517   0.00993   0.00466  -0.0974  0.2227  1.0000  -2.5715   0.0000   0.0000   0.0000   0.3180
   7.400   1.2601   0.01014   0.00481  -0.0970  0.2112  1.0000  -2.6261   0.0000   0.0000   0.0000   0.3170
   7.500   1.2684   0.01036   0.00496  -0.0966  0.1997  1.0000  -2.6807   0.0000   0.0000   0.0000   0.3160
   7.600   1.2766   0.01058   0.00512  -0.0961  0.1880  1.0000  -2.7353   0.0000   0.0000   0.0000   0.3151
   7.700   1.2846   0.01082   0.00529  -0.0956  0.1762  1.0000  -2.7898   0.0000   0.0000   0.0000   0.3141
   7.800   1.2925   0.01105   0.00546  -0.0951  0.1648  1.0000  -2.8443   0.0000   0.0000   0.0000   0.3131
   7.900   1.3003   0.01130   0.00564  -0.0946  0.1536  1.0000  -2.8989   0.0000   0.0000   0.0000   0.3121
   8.000   1.3080   0.01154   0.00582  -0.0941  0.1430  1.0000  -2.9552   0.0000   0.0000   0.0000   0.3112
   8.100   1.3158   0.01178   0.00601  -0.0936  0.1329  1.0000  -3.0132   0.0000   0.0000   0.0000   0.3102
   8.200   1.3235   0.01201   0.00619  -0.0931  0.1234  1.0000  -3.0716   0.0000   0.0000   0.0000   0.3093
   8.300   1.3313   0.01224   0.00637  -0.0925  0.1147  1.0000  -3.1305   0.0000   0.0000   0.0000   0.3083
   8.400   1.3389   0.01247   0.00655  -0.0920  0.1067  1.0000  -3.1894   0.0000   0.0000   0.0000   0.3074
   8.500   1.3464   0.01271   0.00674  -0.0914  0.0993  1.0000  -3.2483   0.0000   0.0000   0.0000   0.3064
   8.600   1.3541   0.01293   0.00692  -0.0909  0.0925  1.0000  -3.3080   0.0000   0.0000   0.0000   0.3055
   8.700   1.3619   0.01313   0.00709  -0.0904  0.0867  1.0000  -3.3687   0.0000   0.0000   0.0000   0.3046
   8.800   1.3693   0.01337   0.00729  -0.0898  0.0807  1.0000  -3.4291   0.0000   0.0000   0.0000   0.3037
   8.900   1.3770   0.01357   0.00747  -0.0893  0.0757  1.0000  -3.4935   0.0000   0.0000   0.0000   0.3028
   9.000   1.3845   0.01378   0.00765  -0.0887  0.0710  1.0000  -3.5573   0.0000   0.0000   0.0000   0.3019
   9.100   1.3920   0.01399   0.00783  -0.0882  0.0668  1.0000  -3.6216   0.0000   0.0000   0.0000   0.3010
   9.200   1.3994   0.01419   0.00802  -0.0876  0.0630  1.0000  -3.6860   0.0000   0.0000   0.0000   0.3001
   9.300   1.4068   0.01438   0.00819  -0.0870  0.0597  1.0000  -3.7512   0.0000   0.0000   0.0000   0.2992
   9.400   1.4136   0.01460   0.00839  -0.0863  0.0564  1.0000  -3.8141   0.0000   0.0000   0.0000   0.2983
   9.500   1.4207   0.01477   0.00855  -0.0856  0.0540  1.0000  -3.8788   0.0000   0.0000   0.0000   0.2973
   9.600   1.4269   0.01498   0.00874  -0.0848  0.0513  1.0000  -3.9408   0.0000   0.0000   0.0000   0.2964
   9.700   1.4335   0.01517   0.00893  -0.0841  0.0489  1.0000  -4.0041   0.0000   0.0000   0.0000   0.2954
   9.800   1.4403   0.01536   0.00911  -0.0834  0.0469  1.0000  -4.0690   0.0000   0.0000   0.0000   0.2945
   9.900   1.4463   0.01558   0.00932  -0.0826  0.0447  1.0000  -4.1344   0.0000   0.0000   0.0000   0.2936
  10.000   1.4528   0.01579   0.00952  -0.0819  0.0428  1.0000  -4.2021   0.0000   0.0000   0.0000   0.2926
  10.100   1.4596   0.01598   0.00971  -0.0812  0.0412  1.0000  -4.2713   0.0000   0.0000   0.0000   0.2918
  10.200   1.4658   0.01620   0.00993  -0.0805  0.0396  1.0000  -4.3385   0.0000   0.0000   0.0000   0.2909
  10.300   1.4716   0.01644   0.01016  -0.0797  0.0379  1.0000  -4.4043   0.0000   0.0000   0.0000   0.2899
  10.400   1.4786   0.01662   0.01035  -0.0790  0.0369  1.0000  -4.4756   0.0000   0.0000   0.0000   0.2891
  10.500   1.4851   0.01683   0.01057  -0.0784  0.0356  1.0000  -4.5451   0.0000   0.0000   0.0000   0.2883
  10.600   1.4910   0.01708   0.01080  -0.0776  0.0344  1.0000  -4.6127   0.0000   0.0000   0.0000   0.2874
  10.700   1.4965   0.01735   0.01107  -0.0768  0.0330  1.0000  -4.6786   0.0000   0.0000   0.0000   0.2865
  10.800   1.5033   0.01754   0.01128  -0.0762  0.0322  1.0000  -4.7504   0.0000   0.0000   0.0000   0.2857
  10.900   1.5096   0.01777   0.01150  -0.0755  0.0313  1.0000  -4.8211   0.0000   0.0000   0.0000   0.2849
  11.000   1.5155   0.01802   0.01176  -0.0748  0.0304  1.0000  -4.8902   0.0000   0.0000   0.0000   0.2840
  11.100   1.5209   0.01830   0.01203  -0.0740  0.0294  1.0000  -4.9573   0.0000   0.0000   0.0000   0.2832
  11.200   1.5262   0.01858   0.01233  -0.0733  0.0285  1.0000  -5.0240   0.0000   0.0000   0.0000   0.2823
  11.300   1.5328   0.01880   0.01256  -0.0727  0.0279  1.0000  -5.0968   0.0000   0.0000   0.0000   0.2816
  11.400   1.5389   0.01905   0.01282  -0.0720  0.0273  1.0000  -5.1679   0.0000   0.0000   0.0000   0.2808
  11.500   1.5445   0.01933   0.01310  -0.0713  0.0266  1.0000  -5.2376   0.0000   0.0000   0.0000   0.2800
  11.600   1.5498   0.01962   0.01341  -0.0706  0.0260  1.0000  -5.3079   0.0000   0.0000   0.0000   0.2792
  11.700   1.5546   0.01996   0.01374  -0.0698  0.0253  1.0000  -5.3773   0.0000   0.0000   0.0000   0.2784
  11.800   1.5594   0.02029   0.01409  -0.0690  0.0246  1.0000  -5.4471   0.0000   0.0000   0.0000   0.2776
  11.900   1.5656   0.02055   0.01436  -0.0684  0.0242  1.0000  -5.5238   0.0000   0.0000   0.0000   0.2768
  12.000   1.5712   0.02084   0.01466  -0.0678  0.0238  1.0000  -5.5988   0.0000   0.0000   0.0000   0.2761
  12.100   1.5766   0.02115   0.01499  -0.0672  0.0233  1.0000  -5.6727   0.0000   0.0000   0.0000   0.2753
  12.200   1.5816   0.02148   0.01533  -0.0665  0.0228  1.0000  -5.7454   0.0000   0.0000   0.0000   0.2746
  12.300   1.5862   0.02185   0.01571  -0.0657  0.0223  1.0000  -5.8163   0.0000   0.0000   0.0000   0.2738
  12.400   1.5902   0.02226   0.01612  -0.0650  0.0218  1.0000  -5.8844   0.0000   0.0000   0.0000   0.2731
  12.500   1.5941   0.02268   0.01656  -0.0642  0.0213  1.0000  -5.9517   0.0000   0.0000   0.0000   0.2723
  12.600   1.5997   0.02300   0.01690  -0.0636  0.0210  1.0000  -6.0283   0.0000   0.0000   0.0000   0.2716
  12.700   1.6049   0.02334   0.01726  -0.0630  0.0207  1.0000  -6.1036   0.0000   0.0000   0.0000   0.2709
  12.800   1.6098   0.02371   0.01765  -0.0624  0.0203  1.0000  -6.1774   0.0000   0.0000   0.0000   0.2702
  12.900   1.6144   0.02411   0.01806  -0.0618  0.0200  1.0000  -6.2502   0.0000   0.0000   0.0000   0.2696
  13.000   1.6187   0.02453   0.01849  -0.0612  0.0196  1.0000  -6.3216   0.0000   0.0000   0.0000   0.2689
  13.100   1.6226   0.02499   0.01896  -0.0605  0.0193  1.0000  -6.3916   0.0000   0.0000   0.0000   0.2682
  13.200   1.6261   0.02548   0.01947  -0.0598  0.0190  1.0000  -6.4591   0.0000   0.0000   0.0000   0.2675
  13.300   1.6289   0.02603   0.02003  -0.0591  0.0186  1.0000  -6.5228   0.0000   0.0000   0.0000   0.2668
  13.400   1.6316   0.02659   0.02062  -0.0583  0.0183  1.0000  -6.5859   0.0000   0.0000   0.0000   0.2661
  13.500   1.6363   0.02702   0.02106  -0.0578  0.0181  1.0000  -6.6606   0.0000   0.0000   0.0000   0.2654
  13.600   1.6407   0.02747   0.02154  -0.0573  0.0179  1.0000  -6.7340   0.0000   0.0000   0.0000   0.2648
  13.700   1.6447   0.02795   0.02204  -0.0568  0.0177  1.0000  -6.8060   0.0000   0.0000   0.0000   0.2642
  13.800   1.6487   0.02845   0.02256  -0.0562  0.0174  1.0000  -6.8775   0.0000   0.0000   0.0000   0.2636
  13.900   1.6522   0.02898   0.02311  -0.0557  0.0172  1.0000  -6.9473   0.0000   0.0000   0.0000   0.2630
  14.000   1.6556   0.02953   0.02368  -0.0551  0.0169  1.0000  -7.0164   0.0000   0.0000   0.0000   0.2624
  14.100   1.6586   0.03013   0.02429  -0.0546  0.0167  1.0000  -7.0840   0.0000   0.0000   0.0000   0.2618
  14.200   1.6614   0.03075   0.02493  -0.0540  0.0165  1.0000  -7.1529   0.0000   0.0000   0.0000   0.2612
  14.300   1.6635   0.03143   0.02563  -0.0535  0.0162  1.0000  -7.2191   0.0000   0.0000   0.0000   0.2606
  14.400   1.6651   0.03217   0.02639  -0.0529  0.0160  1.0000  -7.2814   0.0000   0.0000   0.0000   0.2600
  14.500   1.6656   0.03301   0.02726  -0.0522  0.0157  1.0000  -7.3367   0.0000   0.0000   0.0000   0.2594
  14.600   1.6680   0.03370   0.02797  -0.0518  0.0156  1.0000  -7.4042   0.0000   0.0000   0.0000   0.2589
  14.700   1.6713   0.03431   0.02861  -0.0514  0.0154  1.0000  -7.4778   0.0000   0.0000   0.0000   0.2584
  14.800   1.6744   0.03496   0.02928  -0.0510  0.0153  1.0000  -7.5498   0.0000   0.0000   0.0000   0.2578
  14.900   1.6771   0.03564   0.02999  -0.0506  0.0151  1.0000  -7.6201   0.0000   0.0000   0.0000   0.2573
  15.000   1.6796   0.03635   0.03073  -0.0502  0.0149  1.0000  -7.6895   0.0000   0.0000   0.0000   0.2568


