xflr5 v6.61

 Calculated polar for: NACA 4412

 1 1 Reynolds number fixed          Mach number fixed         

 xtrf =   1.000 (top)        1.000 (bottom)
 Mach =   0.000     Re =     0.900 e 6     Ncrit =   9.000

  alpha     CL        CD       CDp       Cm    Top Xtr Bot Xtr   Cpmin    Chinge    XCp    
 ------- -------- --------- --------- -------- ------- ------- -------- --------- ---------
 -15.000  -0.3034   0.15821   0.15639  -0.0346  1.0000  0.0172  -1.5535   0.0000   0.0000   0.0000   0.1182
 -14.900  -0.3022   0.15739   0.15558  -0.0348  1.0000  0.0174  -1.5453   0.0000   0.0000   0.0000   0.1170
 -14.800  -0.3011   0.15650   0.15469  -0.0351  1.0000  0.0175  -1.5404   0.0000   0.0000   0.0000   0.1158
 -14.700  -0.3000   0.15557   0.15375  -0.0353  1.0000  0.0177  -1.5386   0.0000   0.0000   0.0000   0.1145
 -14.600  -0.2991   0.15458   0.15276  -0.0356  1.0000  0.0178  -1.5396   0.0000   0.0000   0.0000   0.1131
 -14.500  -0.2983   0.15355   0.15173  -0.0359  1.0000  0.0181  -1.5446   0.0000   0.0000   0.0000   0.1119
 -14.100  -0.7244   0.07931   0.07705  -0.0596  1.0000  0.0161  -7.7288   0.0000   0.0000   0.0000   0.1480
 -14.000  -0.7658   0.07083   0.06848  -0.0652  1.0000  0.0160  -8.2451   0.0000   0.0000   0.0000   0.1456
 -13.900  -0.8007   0.06358   0.06115  -0.0703  1.0000  0.0158  -8.6620   0.0000   0.0000   0.0000   0.1434
 -13.800  -0.8347   0.05645   0.05393  -0.0755  1.0000  0.0156  -9.0591   0.0000   0.0000   0.0000   0.1413
 -13.700  -0.8653   0.04958   0.04698  -0.0809  1.0000  0.0155  -9.4133   0.0000   0.0000   0.0000   0.1387
 -13.600  -0.9046   0.03892   0.03609  -0.0922  1.0000  0.0153  -9.9269   0.0000   0.0000   0.0000   0.1309
 -13.500  -0.9338   0.03658   0.03368  -0.0917  1.0000  0.0152  -10.1248   0.0000   0.0000   0.0000   0.1353
 -13.400  -0.9487   0.03558   0.03263  -0.0895  1.0000  0.0152  -10.1876   0.0000   0.0000   0.0000   0.1394
 -13.300  -0.9578   0.03467   0.03168  -0.0880  1.0000  0.0152  -10.2077   0.0000   0.0000   0.0000   0.1422
 -13.200  -0.9647   0.03387   0.03083  -0.0865  1.0000  0.0152  -10.2100   0.0000   0.0000   0.0000   0.1447
 -13.100  -0.9685   0.03310   0.03001  -0.0853  0.9999  0.0153  -10.1908   0.0000   0.0000   0.0000   0.1464
 -13.000  -0.9601   0.03204   0.02888  -0.0867  0.9991  0.0154  -10.0987   0.0000   0.0000   0.0000   0.1443
 -12.900  -0.9514   0.03107   0.02783  -0.0879  0.9983  0.0155  -10.0029   0.0000   0.0000   0.0000   0.1424
 -12.800  -0.9422   0.03016   0.02684  -0.0890  0.9975  0.0156  -9.9040   0.0000   0.0000   0.0000   0.1404
 -12.700  -0.9327   0.02929   0.02590  -0.0901  0.9967  0.0157  -9.8023   0.0000   0.0000   0.0000   0.1384
 -12.600  -0.9228   0.02847   0.02500  -0.0911  0.9961  0.0158  -9.6980   0.0000   0.0000   0.0000   0.1364
 -12.500  -0.9125   0.02772   0.02417  -0.0921  0.9955  0.0159  -9.5900   0.0000   0.0000   0.0000   0.1343
 -12.400  -0.9025   0.02701   0.02339  -0.0929  0.9948  0.0161  -9.4830   0.0000   0.0000   0.0000   0.1324
 -12.300  -0.8929   0.02635   0.02266  -0.0935  0.9938  0.0162  -9.3780   0.0000   0.0000   0.0000   0.1307
 -12.200  -0.8827   0.02574   0.02197  -0.0941  0.9928  0.0163  -9.2695   0.0000   0.0000   0.0000   0.1289
 -12.100  -0.8721   0.02516   0.02132  -0.0947  0.9919  0.0164  -9.1575   0.0000   0.0000   0.0000   0.1269
 -12.000  -0.8611   0.02463   0.02072  -0.0954  0.9911  0.0165  -9.0417   0.0000   0.0000   0.0000   0.1249
 -11.900  -0.8496   0.02416   0.02017  -0.0961  0.9904  0.0166  -8.9223   0.0000   0.0000   0.0000   0.1227
 -11.800  -0.8401   0.02322   0.01915  -0.0968  0.9896  0.0167  -8.8324   0.0000   0.0000   0.0000   0.1206
 -11.700  -0.8298   0.02242   0.01830  -0.0976  0.9890  0.0169  -8.7298   0.0000   0.0000   0.0000   0.1183
 -11.600  -0.8182   0.02191   0.01776  -0.0983  0.9885  0.0171  -8.6119   0.0000   0.0000   0.0000   0.1158
 -11.500  -0.8059   0.02152   0.01735  -0.0990  0.9880  0.0172  -8.4884   0.0000   0.0000   0.0000   0.1132
 -11.400  -0.7932   0.02119   0.01699  -0.0997  0.9877  0.0174  -8.3619   0.0000   0.0000   0.0000   0.1104
 -11.300  -0.7804   0.02088   0.01666  -0.1004  0.9873  0.0176  -8.2349   0.0000   0.0000   0.0000   0.1075
 -11.200  -0.7686   0.02057   0.01633  -0.1009  0.9865  0.0177  -8.1155   0.0000   0.0000   0.0000   0.1050
 -11.100  -0.7582   0.02028   0.01601  -0.1010  0.9850  0.0179  -8.0050   0.0000   0.0000   0.0000   0.1031
 -11.000  -0.7467   0.01996   0.01566  -0.1014  0.9840  0.0181  -7.8904   0.0000   0.0000   0.0000   0.1005
 -10.900  -0.7347   0.01963   0.01528  -0.1019  0.9831  0.0183  -7.7758   0.0000   0.0000   0.0000   0.0977
 -10.800  -0.7224   0.01929   0.01489  -0.1024  0.9824  0.0185  -7.6620   0.0000   0.0000   0.0000   0.0946
 -10.700  -0.7099   0.01895   0.01449  -0.1030  0.9818  0.0187  -7.5486   0.0000   0.0000   0.0000   0.0913
 -10.600  -0.6971   0.01862   0.01411  -0.1036  0.9812  0.0189  -7.4342   0.0000   0.0000   0.0000   0.0878
 -10.500  -0.6841   0.01831   0.01375  -0.1043  0.9807  0.0190  -7.3189   0.0000   0.0000   0.0000   0.0841
 -10.400  -0.6708   0.01802   0.01342  -0.1049  0.9803  0.0192  -7.2021   0.0000   0.0000   0.0000   0.0801
 -10.300  -0.6579   0.01765   0.01299  -0.1056  0.9798  0.0193  -7.0914   0.0000   0.0000   0.0000   0.0761
 -10.200  -0.6464   0.01703   0.01233  -0.1062  0.9792  0.0196  -6.9945   0.0000   0.0000   0.0000   0.0723
 -10.100  -0.6338   0.01666   0.01195  -0.1068  0.9787  0.0199  -6.8817   0.0000   0.0000   0.0000   0.0681
 -10.000  -0.6208   0.01639   0.01166  -0.1074  0.9782  0.0201  -6.7645   0.0000   0.0000   0.0000   0.0636
  -9.900  -0.6078   0.01615   0.01140  -0.1080  0.9777  0.0203  -6.6468   0.0000   0.0000   0.0000   0.0589
  -9.800  -0.5989   0.01595   0.01119  -0.1076  0.9752  0.0205  -6.5501   0.0000   0.0000   0.0000   0.0569
  -9.700  -0.5876   0.01574   0.01095  -0.1078  0.9737  0.0207  -6.4435   0.0000   0.0000   0.0000   0.0533
  -9.600  -0.5760   0.01552   0.01071  -0.1080  0.9724  0.0210  -6.3361   0.0000   0.0000   0.0000   0.0492
  -9.500  -0.5641   0.01529   0.01046  -0.1083  0.9712  0.0212  -6.2292   0.0000   0.0000   0.0000   0.0447
  -9.400  -0.5520   0.01507   0.01020  -0.1086  0.9701  0.0215  -6.1221   0.0000   0.0000   0.0000   0.0400
  -9.300  -0.5398   0.01487   0.00996  -0.1089  0.9691  0.0217  -6.0152   0.0000   0.0000   0.0000   0.0349
  -9.200  -0.5276   0.01469   0.00974  -0.1092  0.9681  0.0220  -5.9083   0.0000   0.0000   0.0000   0.0297
  -9.100  -0.5166   0.01455   0.00956  -0.1092  0.9664  0.0222  -5.8069   0.0000   0.0000   0.0000   0.0253
  -9.000  -0.5083   0.01416   0.00915  -0.1088  0.9636  0.0225  -5.7264   0.0000   0.0000   0.0000   0.0227
  -8.900  -0.4983   0.01388   0.00885  -0.1087  0.9615  0.0229  -5.6338   0.0000   0.0000   0.0000   0.0185
  -8.800  -0.4874   0.01368   0.00864  -0.1087  0.9596  0.0231  -5.5389   0.0000   0.0000   0.0000   0.0137
  -8.700  -0.4764   0.01350   0.00846  -0.1087  0.9578  0.0234  -5.4435   0.0000   0.0000   0.0000   0.0084
  -8.600  -0.4652   0.01334   0.00827  -0.1087  0.9562  0.0237  -5.3488   0.0000   0.0000   0.0000   0.0029
  -8.500  -0.4560   0.01319   0.00810  -0.1083  0.9528  0.0240  -5.2637   0.0000   0.0000   0.0000  -0.0010
  -8.400  -0.4459   0.01303   0.00792  -0.1081  0.9499  0.0244  -5.1762   0.0000   0.0000   0.0000  -0.0059
  -8.300  -0.4355   0.01287   0.00773  -0.1080  0.9474  0.0247  -5.0882   0.0000   0.0000   0.0000  -0.0114
  -8.200  -0.4247   0.01271   0.00754  -0.1079  0.9454  0.0250  -4.9995   0.0000   0.0000   0.0000  -0.0175
  -8.100  -0.4142   0.01258   0.00738  -0.1077  0.9429  0.0253  -4.9125   0.0000   0.0000   0.0000  -0.0236
  -8.000  -0.4040   0.01247   0.00723  -0.1075  0.9400  0.0255  -4.8264   0.0000   0.0000   0.0000  -0.0298
  -7.900  -0.3945   0.01213   0.00687  -0.1073  0.9373  0.0260  -4.7504   0.0000   0.0000   0.0000  -0.0356
  -7.800  -0.3841   0.01193   0.00667  -0.1072  0.9351  0.0264  -4.6645   0.0000   0.0000   0.0000  -0.0427
  -7.700  -0.3733   0.01179   0.00652  -0.1071  0.9332  0.0268  -4.5756   0.0000   0.0000   0.0000  -0.0508
  -7.600  -0.3626   0.01167   0.00638  -0.1070  0.9310  0.0272  -4.4876   0.0000   0.0000   0.0000  -0.0591
  -7.500  -0.3521   0.01156   0.00626  -0.1069  0.9282  0.0277  -4.4013   0.0000   0.0000   0.0000  -0.0677
  -7.400  -0.3414   0.01145   0.00613  -0.1068  0.9256  0.0281  -4.3156   0.0000   0.0000   0.0000  -0.0770
  -7.300  -0.3306   0.01134   0.00599  -0.1067  0.9232  0.0286  -4.2302   0.0000   0.0000   0.0000  -0.0871
  -7.200  -0.3196   0.01125   0.00586  -0.1066  0.9211  0.0290  -4.1446   0.0000   0.0000   0.0000  -0.0982
  -7.100  -0.3091   0.01105   0.00564  -0.1065  0.9186  0.0295  -4.0654   0.0000   0.0000   0.0000  -0.1093
  -7.000  -0.2988   0.01086   0.00545  -0.1064  0.9156  0.0301  -3.9850   0.0000   0.0000   0.0000  -0.1209
  -6.900  -0.2881   0.01073   0.00532  -0.1063  0.9128  0.0306  -3.9017   0.0000   0.0000   0.0000  -0.1341
  -6.800  -0.2772   0.01063   0.00519  -0.1062  0.9103  0.0311  -3.8181   0.0000   0.0000   0.0000  -0.1485
  -6.700  -0.2662   0.01053   0.00507  -0.1062  0.9080  0.0317  -3.7367   0.0000   0.0000   0.0000  -0.1644
  -6.600  -0.2553   0.01043   0.00496  -0.1061  0.9054  0.0323  -3.6602   0.0000   0.0000   0.0000  -0.1815
  -6.500  -0.2443   0.01035   0.00485  -0.1061  0.9023  0.0328  -3.5841   0.0000   0.0000   0.0000  -0.2002
  -6.400  -0.2334   0.01024   0.00471  -0.1060  0.8994  0.0334  -3.5096   0.0000   0.0000   0.0000  -0.2205
  -6.300  -0.2228   0.01005   0.00452  -0.1059  0.8968  0.0343  -3.4372   0.0000   0.0000   0.0000  -0.2421
  -6.200  -0.2119   0.00995   0.00441  -0.1058  0.8943  0.0350  -3.3612   0.0000   0.0000   0.0000  -0.2669
  -6.100  -0.2009   0.00986   0.00432  -0.1058  0.8910  0.0357  -3.2859   0.0000   0.0000   0.0000  -0.2945
  -6.000  -0.1899   0.00978   0.00422  -0.1057  0.8878  0.0365  -3.2116   0.0000   0.0000   0.0000  -0.3253
  -5.900  -0.1788   0.00971   0.00412  -0.1057  0.8848  0.0372  -3.1380   0.0000   0.0000   0.0000  -0.3601
  -5.700  -0.1570   0.00946   0.00384  -0.1055  0.8788  0.0390  -2.9960   0.0000   0.0000   0.0000  -0.4431
  -5.600  -0.1460   0.00937   0.00375  -0.1055  0.8755  0.0399  -2.9237   0.0000   0.0000   0.0000  -0.4944
  -5.500  -0.1349   0.00930   0.00366  -0.1054  0.8724  0.0409  -2.8514   0.0000   0.0000   0.0000  -0.5547
  -5.400  -0.1238   0.00924   0.00358  -0.1054  0.8695  0.0419  -2.7798   0.0000   0.0000   0.0000  -0.6260
  -5.300  -0.1125   0.00919   0.00351  -0.1054  0.8661  0.0428  -2.7085   0.0000   0.0000   0.0000  -0.7125
  -5.200  -0.1017   0.00904   0.00336  -0.1053  0.8625  0.0442  -2.6433   0.0000   0.0000   0.0000  -0.8138
  -5.100  -0.0907   0.00896   0.00327  -0.1053  0.8591  0.0454  -2.5780   0.0000   0.0000   0.0000  -0.9417
  -5.000  -0.0795   0.00890   0.00319  -0.1052  0.8560  0.0467  -2.5128   0.0000   0.0000   0.0000  -1.1067
  -4.900  -0.0684   0.00884   0.00312  -0.1052  0.8523  0.0479  -2.4483   0.0000   0.0000   0.0000  -1.3275
  -4.800  -0.0572   0.00877   0.00303  -0.1051  0.8485  0.0490  -2.3850   0.0000   0.0000   0.0000  -1.6320
  -4.700  -0.0463   0.00867   0.00293  -0.1051  0.8451  0.0509  -2.3228   0.0000   0.0000   0.0000  -2.0743
  -4.600  -0.0351   0.00860   0.00286  -0.1050  0.8417  0.0525  -2.2594   0.0000   0.0000   0.0000  -2.8085
  -4.500  -0.0239   0.00855   0.00280  -0.1050  0.8378  0.0541  -2.1965   0.0000   0.0000   0.0000  -4.2376
  -4.400  -0.0128   0.00850   0.00272  -0.1050  0.8340  0.0556  -2.1348   0.0000   0.0000   0.0000  -8.1437
  -4.300  -0.0018   0.00842   0.00263  -0.1049  0.8306  0.0579  -2.0755   0.0000   0.0000   0.0000  -59.3309
  -4.200   0.0094   0.00835   0.00257  -0.1049  0.8265  0.0599  -2.0180   0.0000   0.0000   0.0000  11.6491
  -4.100   0.0206   0.00831   0.00251  -0.1049  0.8224  0.0618  -1.9611   0.0000   0.0000   0.0000   5.4469
  -4.000   0.0316   0.00825   0.00243  -0.1048  0.8186  0.0642  -1.9056   0.0000   0.0000   0.0000   3.6292
  -3.900   0.0428   0.00818   0.00237  -0.1048  0.8146  0.0668  -1.8496   0.0000   0.0000   0.0000   2.7460
  -3.800   0.0539   0.00814   0.00232  -0.1048  0.8103  0.0693  -1.7940   0.0000   0.0000   0.0000   2.2270
  -3.700   0.0650   0.00810   0.00226  -0.1047  0.8063  0.0719  -1.7395   0.0000   0.0000   0.0000   1.8880
  -3.600   0.0762   0.00803   0.00220  -0.1047  0.8022  0.0751  -1.6851   0.0000   0.0000   0.0000   1.6475
  -3.500   0.0874   0.00799   0.00215  -0.1047  0.7977  0.0782  -1.6309   0.0000   0.0000   0.0000   1.4676
  -3.400   0.0984   0.00795   0.00210  -0.1046  0.7935  0.0814  -1.5809   0.0000   0.0000   0.0000   1.3294
  -3.300   0.1096   0.00789   0.00205  -0.1046  0.7892  0.0853  -1.5311   0.0000   0.0000   0.0000   1.2189
  -3.200   0.1208   0.00786   0.00201  -0.1046  0.7845  0.0888  -1.4815   0.0000   0.0000   0.0000   1.1283
  -3.100   0.1318   0.00782   0.00195  -0.1045  0.7802  0.0930  -1.4330   0.0000   0.0000   0.0000   1.0540
  -3.000   0.1429   0.00777   0.00192  -0.1045  0.7756  0.0974  -1.3843   0.0000   0.0000   0.0000   0.9905
  -2.900   0.1541   0.00774   0.00188  -0.1045  0.7708  0.1017  -1.3362   0.0000   0.0000   0.0000   0.9364
  -2.800   0.1651   0.00770   0.00184  -0.1044  0.7664  0.1070  -1.2888   0.0000   0.0000   0.0000   0.8900
  -2.700   0.1763   0.00767   0.00180  -0.1044  0.7616  0.1116  -1.2419   0.0000   0.0000   0.0000   0.8487
  -2.600   0.1874   0.00762   0.00177  -0.1043  0.7567  0.1177  -1.1982   0.0000   0.0000   0.0000   0.8129
  -2.500   0.1985   0.00761   0.00174  -0.1043  0.7521  0.1229  -1.1546   0.0000   0.0000   0.0000   0.7809
  -2.400   0.2096   0.00756   0.00171  -0.1043  0.7469  0.1295  -1.1115   0.0000   0.0000   0.0000   0.7523
  -2.200   0.2317   0.00750   0.00165  -0.1042  0.7372  0.1426  -1.0280   0.0000   0.0000   0.0000   0.7034
  -2.100   0.2428   0.00748   0.00163  -0.1042  0.7319  0.1492  -0.9886   0.0000   0.0000   0.0000   0.6823
  -2.000   0.2538   0.00746   0.00160  -0.1041  0.7271  0.1569  -0.9498   0.0000   0.0000   0.0000   0.6631
  -1.900   0.2650   0.00742   0.00158  -0.1041  0.7218  0.1644  -0.9110   0.0000   0.0000   0.0000   0.6454
  -1.800   0.2760   0.00741   0.00157  -0.1041  0.7166  0.1723  -0.8728   0.0000   0.0000   0.0000   0.6292
  -1.700   0.2871   0.00738   0.00155  -0.1040  0.7115  0.1809  -0.8364   0.0000   0.0000   0.0000   0.6143
  -1.600   0.2981   0.00736   0.00153  -0.1040  0.7061  0.1893  -0.8011   0.0000   0.0000   0.0000   0.6004
  -1.500   0.3091   0.00735   0.00152  -0.1039  0.7011  0.1984  -0.7663   0.0000   0.0000   0.0000   0.5876
  -1.400   0.3202   0.00732   0.00151  -0.1039  0.6956  0.2081  -0.7315   0.0000   0.0000   0.0000   0.5756
  -1.300   0.3311   0.00731   0.00150  -0.1039  0.6903  0.2176  -0.6974   0.0000   0.0000   0.0000   0.5645
  -1.200   0.3423   0.00729   0.00149  -0.1039  0.6850  0.2277  -0.6755   0.0000   0.0000   0.0000   0.5540
  -1.100   0.3533   0.00727   0.00148  -0.1038  0.6794  0.2385  -0.6834   0.0000   0.0000   0.0000   0.5442
  -1.000   0.3642   0.00725   0.00148  -0.1038  0.6743  0.2498  -0.6913   0.0000   0.0000   0.0000   0.5351
  -0.900   0.3753   0.00723   0.00147  -0.1038  0.6687  0.2615  -0.6994   0.0000   0.0000   0.0000   0.5264
  -0.800   0.3861   0.00723   0.00147  -0.1037  0.6635  0.2739  -0.7074   0.0000   0.0000   0.0000   0.5183
  -0.700   0.3972   0.00720   0.00147  -0.1037  0.6580  0.2869  -0.7156   0.0000   0.0000   0.0000   0.5106
  -0.600   0.4081   0.00719   0.00147  -0.1036  0.6525  0.3006  -0.7237   0.0000   0.0000   0.0000   0.5033
  -0.500   0.4191   0.00717   0.00147  -0.1036  0.6473  0.3156  -0.7319   0.0000   0.0000   0.0000   0.4964
  -0.400   0.4301   0.00714   0.00148  -0.1036  0.6418  0.3316  -0.7403   0.0000   0.0000   0.0000   0.4899
  -0.300   0.4409   0.00712   0.00148  -0.1035  0.6367  0.3492  -0.7486   0.0000   0.0000   0.0000   0.4837
  -0.200   0.4519   0.00708   0.00148  -0.1035  0.6312  0.3705  -0.7571   0.0000   0.0000   0.0000   0.4778
  -0.100   0.4626   0.00703   0.00149  -0.1034  0.6259  0.3966  -0.7654   0.0000   0.0000   0.0000   0.4723
   0.000   0.4733   0.00694   0.00150  -0.1034  0.6208  0.4364  -0.7737   0.0000   0.0000   0.0000   0.4670
   0.100   0.4838   0.00682   0.00152  -0.1033  0.6155  0.4929  -0.7822   0.0000   0.0000   0.0000   0.4620
   0.200   0.4941   0.00671   0.00155  -0.1032  0.6107  0.5489  -0.7907   0.0000   0.0000   0.0000   0.4572
   0.300   0.5046   0.00660   0.00157  -0.1031  0.6054  0.6005  -0.7992   0.0000   0.0000   0.0000   0.4525
   0.400   0.5148   0.00652   0.00160  -0.1030  0.6004  0.6501  -0.8076   0.0000   0.0000   0.0000   0.4480
   0.500   0.5250   0.00642   0.00163  -0.1028  0.5957  0.6989  -0.8161   0.0000   0.0000   0.0000   0.4436
   0.600   0.5348   0.00632   0.00166  -0.1025  0.5908  0.7476  -0.8247   0.0000   0.0000   0.0000   0.4394
   0.700   0.5439   0.00623   0.00170  -0.1020  0.5862  0.7987  -0.8328   0.0000   0.0000   0.0000   0.4351
   0.800   0.5525   0.00611   0.00174  -0.1013  0.5817  0.8521  -0.8408   0.0000   0.0000   0.0000   0.4308
   0.900   0.5600   0.00604   0.00178  -0.1003  0.5771  0.9036  -0.8482   0.0000   0.0000   0.0000   0.4265
   1.000   0.5709   0.00603   0.00181  -0.1000  0.5728  0.9496  -0.8576   0.0000   0.0000   0.0000   0.4225
   1.100   0.5892   0.00604   0.00182  -0.1015  0.5678  0.9785  -0.8713   0.0000   0.0000   0.0000   0.4195
   1.200   0.6069   0.00608   0.00183  -0.1030  0.5628  0.9936  -0.8847   0.0000   0.0000   0.0000   0.4167
   1.300   0.6226   0.00613   0.00184  -0.1040  0.5584  1.0000  -0.8969   0.0000   0.0000   0.0000   0.4140
   1.400   0.6332   0.00617   0.00186  -0.1038  0.5541  1.0000  -0.9066   0.0000   0.0000   0.0000   0.4109
   1.500   0.6436   0.00622   0.00187  -0.1037  0.5500  1.0000  -0.9162   0.0000   0.0000   0.0000   0.4079
   1.600   0.6541   0.00627   0.00189  -0.1035  0.5461  1.0000  -0.9259   0.0000   0.0000   0.0000   0.4050
   1.700   0.6648   0.00630   0.00191  -0.1034  0.5421  1.0000  -0.9358   0.0000   0.0000   0.0000   0.4021
   1.800   0.6754   0.00635   0.00193  -0.1033  0.5382  1.0000  -0.9459   0.0000   0.0000   0.0000   0.3994
   1.900   0.6858   0.00641   0.00196  -0.1031  0.5345  1.0000  -0.9559   0.0000   0.0000   0.0000   0.3968
   2.000   0.6967   0.00645   0.00198  -0.1031  0.5309  1.0000  -0.9663   0.0000   0.0000   0.0000   0.3942
   2.100   0.7074   0.00649   0.00201  -0.1030  0.5271  1.0000  -0.9767   0.0000   0.0000   0.0000   0.3917
   2.200   0.7180   0.00654   0.00203  -0.1029  0.5236  1.0000  -0.9873   0.0000   0.0000   0.0000   0.3893
   2.300   0.7287   0.00659   0.00206  -0.1027  0.5203  1.0000  -0.9980   0.0000   0.0000   0.0000   0.3869
   2.400   0.7396   0.00663   0.00209  -0.1027  0.5169  1.0000  -1.0088   0.0000   0.0000   0.0000   0.3847
   2.500   0.7503   0.00668   0.00212  -0.1026  0.5134  1.0000  -1.0200   0.0000   0.0000   0.0000   0.3825
   2.600   0.7609   0.00674   0.00215  -0.1025  0.5102  1.0000  -1.0311   0.0000   0.0000   0.0000   0.3803
   2.700   0.7717   0.00678   0.00218  -0.1024  0.5071  1.0000  -1.0423   0.0000   0.0000   0.0000   0.3782
   2.800   0.7826   0.00682   0.00221  -0.1023  0.5039  1.0000  -1.0541   0.0000   0.0000   0.0000   0.3762
   2.900   0.7934   0.00687   0.00224  -0.1023  0.5006  1.0000  -1.0659   0.0000   0.0000   0.0000   0.3742
   3.000   0.8040   0.00693   0.00228  -0.1021  0.4976  1.0000  -1.0777   0.0000   0.0000   0.0000   0.3723
   3.100   0.8147   0.00698   0.00231  -0.1021  0.4947  1.0000  -1.0899   0.0000   0.0000   0.0000   0.3704
   3.200   0.8257   0.00702   0.00235  -0.1020  0.4916  1.0000  -1.1024   0.0000   0.0000   0.0000   0.3686
   3.300   0.8365   0.00706   0.00238  -0.1020  0.4885  1.0000  -1.1152   0.0000   0.0000   0.0000   0.3668
   3.400   0.8472   0.00712   0.00242  -0.1019  0.4855  1.0000  -1.1280   0.0000   0.0000   0.0000   0.3650
   3.500   0.8577   0.00719   0.00246  -0.1017  0.4826  1.0000  -1.1411   0.0000   0.0000   0.0000   0.3633
   3.600   0.8688   0.00722   0.00250  -0.1017  0.4798  1.0000  -1.1548   0.0000   0.0000   0.0000   0.3617
   3.700   0.8797   0.00727   0.00254  -0.1017  0.4767  1.0000  -1.1689   0.0000   0.0000   0.0000   0.3600
   3.800   0.8904   0.00732   0.00258  -0.1016  0.4736  1.0000  -1.1832   0.0000   0.0000   0.0000   0.3585
   3.900   0.9009   0.00739   0.00262  -0.1014  0.4707  1.0000  -1.1979   0.0000   0.0000   0.0000   0.3569
   4.000   0.9118   0.00743   0.00266  -0.1014  0.4679  1.0000  -1.2137   0.0000   0.0000   0.0000   0.3554
   4.100   0.9227   0.00748   0.00270  -0.1014  0.4647  1.0000  -1.2302   0.0000   0.0000   0.0000   0.3539
   4.200   0.9334   0.00753   0.00275  -0.1013  0.4615  1.0000  -1.2481   0.0000   0.0000   0.0000   0.3524
   4.300   0.9439   0.00760   0.00280  -0.1012  0.4584  1.0000  -1.2688   0.0000   0.0000   0.0000   0.3510
   4.400   0.9546   0.00765   0.00285  -0.1011  0.4553  1.0000  -1.2934   0.0000   0.0000   0.0000   0.3496
   4.500   0.9655   0.00770   0.00289  -0.1010  0.4519  1.0000  -1.3211   0.0000   0.0000   0.0000   0.3483
   4.600   0.9761   0.00775   0.00293  -0.1009  0.4483  1.0000  -1.3500   0.0000   0.0000   0.0000   0.3469
   4.700   0.9864   0.00784   0.00299  -0.1008  0.4448  1.0000  -1.3807   0.0000   0.0000   0.0000   0.3456
   4.800   0.9973   0.00788   0.00303  -0.1008  0.4411  1.0000  -1.4135   0.0000   0.0000   0.0000   0.3443
   4.900   1.0080   0.00793   0.00308  -0.1007  0.4370  1.0000  -1.4470   0.0000   0.0000   0.0000   0.3430
   5.000   1.0183   0.00801   0.00314  -0.1005  0.4328  1.0000  -1.4817   0.0000   0.0000   0.0000   0.3418
   5.100   1.0290   0.00807   0.00319  -0.1004  0.4288  1.0000  -1.5187   0.0000   0.0000   0.0000   0.3405
   5.200   1.0396   0.00812   0.00324  -0.1004  0.4243  1.0000  -1.5566   0.0000   0.0000   0.0000   0.3393
   5.300   1.0499   0.00821   0.00330  -0.1002  0.4199  1.0000  -1.5941   0.0000   0.0000   0.0000   0.3381
   5.400   1.0605   0.00826   0.00335  -0.1001  0.4156  1.0000  -1.6340   0.0000   0.0000   0.0000   0.3370
   5.500   1.0711   0.00832   0.00341  -0.1000  0.4109  1.0000  -1.6746   0.0000   0.0000   0.0000   0.3358
   5.700   1.0919   0.00846   0.00352  -0.0998  0.4017  1.0000  -1.7601   0.0000   0.0000   0.0000   0.3336
   5.800   1.1023   0.00854   0.00358  -0.0997  0.3965  1.0000  -1.8035   0.0000   0.0000   0.0000   0.3325
   5.900   1.1125   0.00862   0.00365  -0.0995  0.3917  1.0000  -1.8489   0.0000   0.0000   0.0000   0.3314
   6.000   1.1229   0.00869   0.00371  -0.0994  0.3861  1.0000  -1.8954   0.0000   0.0000   0.0000   0.3304
   6.100   1.1329   0.00879   0.00378  -0.0992  0.3807  1.0000  -1.9412   0.0000   0.0000   0.0000   0.3293
   6.200   1.1433   0.00886   0.00385  -0.0991  0.3747  1.0000  -1.9884   0.0000   0.0000   0.0000   0.3283
   6.300   1.1530   0.00897   0.00393  -0.0989  0.3685  1.0000  -2.0353   0.0000   0.0000   0.0000   0.3272
   6.400   1.1633   0.00906   0.00400  -0.0987  0.3619  1.0000  -2.0853   0.0000   0.0000   0.0000   0.3262
   6.500   1.1729   0.00917   0.00408  -0.0985  0.3552  1.0000  -2.1344   0.0000   0.0000   0.0000   0.3252
   6.600   1.1829   0.00928   0.00416  -0.0983  0.3479  1.0000  -2.1844   0.0000   0.0000   0.0000   0.3242
   6.700   1.1925   0.00940   0.00426  -0.0981  0.3406  1.0000  -2.2364   0.0000   0.0000   0.0000   0.3232
   6.800   1.2019   0.00953   0.00436  -0.0978  0.3327  1.0000  -2.2885   0.0000   0.0000   0.0000   0.3222
   6.900   1.2115   0.00966   0.00445  -0.0975  0.3244  1.0000  -2.3416   0.0000   0.0000   0.0000   0.3212
   7.000   1.2207   0.00980   0.00456  -0.0972  0.3158  1.0000  -2.3940   0.0000   0.0000   0.0000   0.3202
   7.100   1.2297   0.00997   0.00468  -0.0969  0.3065  1.0000  -2.4462   0.0000   0.0000   0.0000   0.3192
   7.200   1.2387   0.01013   0.00480  -0.0966  0.2967  1.0000  -2.5005   0.0000   0.0000   0.0000   0.3182
   7.300   1.2476   0.01030   0.00492  -0.0962  0.2867  1.0000  -2.5560   0.0000   0.0000   0.0000   0.3173
   7.400   1.2563   0.01048   0.00506  -0.0958  0.2762  1.0000  -2.6112   0.0000   0.0000   0.0000   0.3163
   7.500   1.2648   0.01068   0.00520  -0.0954  0.2654  1.0000  -2.6662   0.0000   0.0000   0.0000   0.3153
   7.600   1.2731   0.01089   0.00536  -0.0950  0.2541  1.0000  -2.7211   0.0000   0.0000   0.0000   0.3144
   7.700   1.2812   0.01111   0.00552  -0.0945  0.2424  1.0000  -2.7757   0.0000   0.0000   0.0000   0.3134
   7.800   1.2891   0.01134   0.00569  -0.0940  0.2305  1.0000  -2.8302   0.0000   0.0000   0.0000   0.3124
   7.900   1.2968   0.01159   0.00586  -0.0935  0.2182  1.0000  -2.8844   0.0000   0.0000   0.0000   0.3114
   8.000   1.3043   0.01184   0.00605  -0.0929  0.2060  1.0000  -2.9390   0.0000   0.0000   0.0000   0.3105
   8.100   1.3116   0.01210   0.00625  -0.0923  0.1936  1.0000  -2.9955   0.0000   0.0000   0.0000   0.3095
   8.200   1.3187   0.01238   0.00645  -0.0917  0.1812  1.0000  -3.0517   0.0000   0.0000   0.0000   0.3085
   8.300   1.3256   0.01266   0.00666  -0.0911  0.1691  1.0000  -3.1078   0.0000   0.0000   0.0000   0.3075
   8.400   1.3324   0.01295   0.00688  -0.0904  0.1574  1.0000  -3.1636   0.0000   0.0000   0.0000   0.3065
   8.500   1.3391   0.01323   0.00710  -0.0897  0.1463  1.0000  -3.2196   0.0000   0.0000   0.0000   0.3055
   8.600   1.3458   0.01352   0.00732  -0.0891  0.1358  1.0000  -3.2756   0.0000   0.0000   0.0000   0.3045
   8.700   1.3523   0.01380   0.00755  -0.0883  0.1260  1.0000  -3.3318   0.0000   0.0000   0.0000   0.3036
   8.800   1.3588   0.01408   0.00778  -0.0876  0.1170  1.0000  -3.3879   0.0000   0.0000   0.0000   0.3026
   8.900   1.3651   0.01437   0.00801  -0.0869  0.1086  1.0000  -3.4453   0.0000   0.0000   0.0000   0.3016
   9.100   1.3776   0.01490   0.00846  -0.0854  0.0940  1.0000  -3.5639   0.0000   0.0000   0.0000   0.2996
   9.200   1.3832   0.01515   0.00869  -0.0845  0.0882  1.0000  -3.6215   0.0000   0.0000   0.0000   0.2986
   9.300   1.3886   0.01542   0.00892  -0.0835  0.0824  1.0000  -3.6784   0.0000   0.0000   0.0000   0.2975
   9.400   1.3945   0.01566   0.00913  -0.0827  0.0776  1.0000  -3.7378   0.0000   0.0000   0.0000   0.2965
   9.600   1.4059   0.01617   0.00960  -0.0810  0.0688  1.0000  -3.8555   0.0000   0.0000   0.0000   0.2945
   9.700   1.4111   0.01646   0.00986  -0.0801  0.0647  1.0000  -3.9130   0.0000   0.0000   0.0000   0.2935
   9.800   1.4173   0.01669   0.01009  -0.0793  0.0615  1.0000  -3.9745   0.0000   0.0000   0.0000   0.2926
   9.900   1.4228   0.01696   0.01034  -0.0785  0.0583  1.0000  -4.0338   0.0000   0.0000   0.0000   0.2916
  10.000   1.4285   0.01722   0.01060  -0.0777  0.0556  1.0000  -4.0949   0.0000   0.0000   0.0000   0.2907
  10.100   1.4345   0.01747   0.01084  -0.0770  0.0531  1.0000  -4.1597   0.0000   0.0000   0.0000   0.2898
  10.200   1.4396   0.01776   0.01112  -0.0761  0.0506  1.0000  -4.2216   0.0000   0.0000   0.0000   0.2888
  10.300   1.4455   0.01802   0.01138  -0.0753  0.0486  1.0000  -4.2863   0.0000   0.0000   0.0000   0.2879
  10.400   1.4513   0.01828   0.01164  -0.0746  0.0467  1.0000  -4.3516   0.0000   0.0000   0.0000   0.2871
  10.500   1.4565   0.01858   0.01194  -0.0738  0.0448  1.0000  -4.4144   0.0000   0.0000   0.0000   0.2862
  10.600   1.4616   0.01889   0.01224  -0.0730  0.0431  1.0000  -4.4770   0.0000   0.0000   0.0000   0.2853
  10.700   1.4677   0.01914   0.01251  -0.0723  0.0417  1.0000  -4.5440   0.0000   0.0000   0.0000   0.2844
  10.800   1.4731   0.01944   0.01280  -0.0715  0.0402  1.0000  -4.6089   0.0000   0.0000   0.0000   0.2836
  10.900   1.4778   0.01977   0.01313  -0.0707  0.0388  1.0000  -4.6711   0.0000   0.0000   0.0000   0.2827
  11.000   1.4826   0.02011   0.01348  -0.0699  0.0376  1.0000  -4.7333   0.0000   0.0000   0.0000   0.2818
  11.100   1.4885   0.02038   0.01377  -0.0693  0.0366  1.0000  -4.8010   0.0000   0.0000   0.0000   0.2810
  11.200   1.4939   0.02069   0.01408  -0.0686  0.0356  1.0000  -4.8665   0.0000   0.0000   0.0000   0.2802
  11.300   1.4987   0.02103   0.01443  -0.0678  0.0346  1.0000  -4.9303   0.0000   0.0000   0.0000   0.2794
  11.400   1.5028   0.02143   0.01483  -0.0670  0.0336  1.0000  -4.9909   0.0000   0.0000   0.0000   0.2786
  11.500   1.5071   0.02181   0.01523  -0.0662  0.0327  1.0000  -5.0523   0.0000   0.0000   0.0000   0.2777
  11.600   1.5128   0.02211   0.01555  -0.0656  0.0320  1.0000  -5.1205   0.0000   0.0000   0.0000   0.2770
  11.700   1.5179   0.02246   0.01591  -0.0649  0.0312  1.0000  -5.1864   0.0000   0.0000   0.0000   0.2762
  11.800   1.5225   0.02283   0.01630  -0.0642  0.0304  1.0000  -5.2521   0.0000   0.0000   0.0000   0.2755
  11.900   1.5266   0.02325   0.01672  -0.0634  0.0297  1.0000  -5.3175   0.0000   0.0000   0.0000   0.2747
  12.000   1.5298   0.02374   0.01721  -0.0626  0.0290  1.0000  -5.3782   0.0000   0.0000   0.0000   0.2739
  12.100   1.5336   0.02419   0.01768  -0.0619  0.0284  1.0000  -5.4417   0.0000   0.0000   0.0000   0.2731
  12.200   1.5387   0.02455   0.01808  -0.0613  0.0279  1.0000  -5.5125   0.0000   0.0000   0.0000   0.2724
  12.300   1.5435   0.02495   0.01849  -0.0607  0.0273  1.0000  -5.5817   0.0000   0.0000   0.0000   0.2717
  12.400   1.5477   0.02538   0.01895  -0.0600  0.0268  1.0000  -5.6491   0.0000   0.0000   0.0000   0.2710
  12.500   1.5517   0.02585   0.01943  -0.0594  0.0263  1.0000  -5.7151   0.0000   0.0000   0.0000   0.2703
  12.600   1.5550   0.02636   0.01995  -0.0587  0.0258  1.0000  -5.7788   0.0000   0.0000   0.0000   0.2696
  12.700   1.5577   0.02693   0.02054  -0.0580  0.0253  1.0000  -5.8385   0.0000   0.0000   0.0000   0.2688
  12.800   1.5589   0.02763   0.02125  -0.0571  0.0248  1.0000  -5.8902   0.0000   0.0000   0.0000   0.2681
  12.900   1.5632   0.02810   0.02175  -0.0566  0.0245  1.0000  -5.9586   0.0000   0.0000   0.0000   0.2674
  13.000   1.5674   0.02857   0.02225  -0.0560  0.0241  1.0000  -6.0269   0.0000   0.0000   0.0000   0.2668
  13.100   1.5714   0.02908   0.02278  -0.0555  0.0237  1.0000  -6.0941   0.0000   0.0000   0.0000   0.2662
  13.200   1.5750   0.02961   0.02334  -0.0550  0.0233  1.0000  -6.1601   0.0000   0.0000   0.0000   0.2656
  13.300   1.5783   0.03018   0.02393  -0.0544  0.0229  1.0000  -6.2251   0.0000   0.0000   0.0000   0.2650
  13.400   1.5812   0.03079   0.02456  -0.0539  0.0226  1.0000  -6.2878   0.0000   0.0000   0.0000   0.2643
  13.500   1.5836   0.03146   0.02524  -0.0533  0.0222  1.0000  -6.3483   0.0000   0.0000   0.0000   0.2637
  13.600   1.5851   0.03221   0.02601  -0.0527  0.0219  1.0000  -6.4037   0.0000   0.0000   0.0000   0.2631
  13.700   1.5853   0.03308   0.02691  -0.0520  0.0215  1.0000  -6.4517   0.0000   0.0000   0.0000   0.2625
  13.800   1.5864   0.03389   0.02774  -0.0515  0.0212  1.0000  -6.5039   0.0000   0.0000   0.0000   0.2619
  13.900   1.5897   0.03451   0.02839  -0.0510  0.0210  1.0000  -6.5692   0.0000   0.0000   0.0000   0.2614
  14.000   1.5927   0.03517   0.02909  -0.0506  0.0208  1.0000  -6.6322   0.0000   0.0000   0.0000   0.2608
  14.100   1.5952   0.03588   0.02983  -0.0502  0.0205  1.0000  -6.6933   0.0000   0.0000   0.0000   0.2603
  14.200   1.5975   0.03661   0.03059  -0.0498  0.0203  1.0000  -6.7536   0.0000   0.0000   0.0000   0.2598
  14.300   1.5996   0.03738   0.03139  -0.0494  0.0200  1.0000  -6.8129   0.0000   0.0000   0.0000   0.2593
  14.400   1.6016   0.03817   0.03220  -0.0490  0.0198  1.0000  -6.8717   0.0000   0.0000   0.0000   0.2588
  14.500   1.6031   0.03900   0.03306  -0.0486  0.0195  1.0000  -6.9300   0.0000   0.0000   0.0000   0.2583
  14.600   1.6043   0.03988   0.03397  -0.0482  0.0193  1.0000  -6.9876   0.0000   0.0000   0.0000   0.2578
  14.700   1.6050   0.04082   0.03493  -0.0479  0.0191  1.0000  -7.0426   0.0000   0.0000   0.0000   0.2574
  14.800   1.6050   0.04186   0.03599  -0.0475  0.0189  1.0000  -7.0931   0.0000   0.0000   0.0000   0.2570
  14.900   1.6041   0.04299   0.03716  -0.0472  0.0187  1.0000  -7.1381   0.0000   0.0000   0.0000   0.2565
  15.000   1.6021   0.04427   0.03847  -0.0468  0.0185  1.0000  -7.1756   0.0000   0.0000   0.0000   0.2561


