xflr5 v6.61

 Calculated polar for: NACA 0012

 1 1 Reynolds number fixed          Mach number fixed         

 xtrf =   1.000 (top)        1.000 (bottom)
 Mach =   0.000     Re =     1.100 e 6     Ncrit =   9.000

  alpha     CL        CD       CDp       Cm    Top Xtr Bot Xtr   Cpmin    Chinge    XCp    
 ------- -------- --------- --------- -------- ------- ------- -------- --------- ---------
 -15.000  -1.3812   0.03138   0.02682  -0.0313  1.0000  0.0135  -9.6486   0.0000   0.0000   0.0000   0.2084
 -14.900  -1.3850   0.03019   0.02556  -0.0308  1.0000  0.0136  -9.6330   0.0000   0.0000   0.0000   0.2091
 -14.800  -1.3875   0.02916   0.02447  -0.0302  1.0000  0.0138  -9.6065   0.0000   0.0000   0.0000   0.2097
 -14.700  -1.3886   0.02826   0.02353  -0.0296  1.0000  0.0139  -9.5691   0.0000   0.0000   0.0000   0.2104
 -14.600  -1.3888   0.02748   0.02270  -0.0289  1.0000  0.0141  -9.5235   0.0000   0.0000   0.0000   0.2111
 -14.500  -1.3881   0.02680   0.02198  -0.0282  1.0000  0.0142  -9.4700   0.0000   0.0000   0.0000   0.2118
 -14.400  -1.3866   0.02620   0.02134  -0.0274  1.0000  0.0144  -9.4101   0.0000   0.0000   0.0000   0.2125
 -14.300  -1.3843   0.02566   0.02078  -0.0267  1.0000  0.0145  -9.3437   0.0000   0.0000   0.0000   0.2132
 -14.200  -1.3815   0.02518   0.02026  -0.0260  1.0000  0.0146  -9.2730   0.0000   0.0000   0.0000   0.2138
 -14.100  -1.3780   0.02474   0.01980  -0.0253  1.0000  0.0148  -9.1981   0.0000   0.0000   0.0000   0.2145
 -14.000  -1.3744   0.02434   0.01938  -0.0246  1.0000  0.0149  -9.1211   0.0000   0.0000   0.0000   0.2151
 -13.900  -1.3704   0.02396   0.01898  -0.0238  1.0000  0.0150  -9.0419   0.0000   0.0000   0.0000   0.2158
 -13.800  -1.3660   0.02361   0.01861  -0.0231  1.0000  0.0152  -8.9602   0.0000   0.0000   0.0000   0.2164
 -13.700  -1.3615   0.02328   0.01825  -0.0224  1.0000  0.0153  -8.8778   0.0000   0.0000   0.0000   0.2171
 -13.600  -1.3568   0.02296   0.01792  -0.0216  1.0000  0.0155  -8.7944   0.0000   0.0000   0.0000   0.2178
 -13.500  -1.3519   0.02267   0.01759  -0.0209  1.0000  0.0156  -8.7101   0.0000   0.0000   0.0000   0.2184
 -13.400  -1.3470   0.02238   0.01728  -0.0201  1.0000  0.0157  -8.6256   0.0000   0.0000   0.0000   0.2191
 -13.300  -1.3418   0.02210   0.01698  -0.0193  1.0000  0.0159  -8.5405   0.0000   0.0000   0.0000   0.2198
 -13.200  -1.3364   0.02183   0.01669  -0.0186  1.0000  0.0160  -8.4542   0.0000   0.0000   0.0000   0.2205
 -13.100  -1.3305   0.02157   0.01640  -0.0179  1.0000  0.0162  -8.3653   0.0000   0.0000   0.0000   0.2210
 -13.000  -1.3239   0.02130   0.01612  -0.0174  1.0000  0.0163  -8.2734   0.0000   0.0000   0.0000   0.2216
 -12.900  -1.3171   0.02104   0.01583  -0.0169  1.0000  0.0165  -8.1809   0.0000   0.0000   0.0000   0.2220
 -12.800  -1.3102   0.02079   0.01556  -0.0164  1.0000  0.0166  -8.0880   0.0000   0.0000   0.0000   0.2225
 -12.700  -1.3031   0.02054   0.01528  -0.0159  1.0000  0.0168  -7.9945   0.0000   0.0000   0.0000   0.2230
 -12.600  -1.2958   0.02029   0.01502  -0.0154  1.0000  0.0169  -7.9005   0.0000   0.0000   0.0000   0.2234
 -12.500  -1.2884   0.02006   0.01476  -0.0149  1.0000  0.0171  -7.8059   0.0000   0.0000   0.0000   0.2239
 -12.400  -1.2808   0.01983   0.01451  -0.0145  1.0000  0.0172  -7.7108   0.0000   0.0000   0.0000   0.2243
 -12.300  -1.2730   0.01961   0.01427  -0.0141  1.0000  0.0173  -7.6151   0.0000   0.0000   0.0000   0.2247
 -12.200  -1.2651   0.01940   0.01404  -0.0137  1.0000  0.0175  -7.5188   0.0000   0.0000   0.0000   0.2251
 -12.100  -1.2570   0.01919   0.01382  -0.0133  1.0000  0.0176  -7.4219   0.0000   0.0000   0.0000   0.2255
 -12.000  -1.2488   0.01900   0.01360  -0.0129  1.0000  0.0177  -7.3244   0.0000   0.0000   0.0000   0.2259
 -11.900  -1.2404   0.01882   0.01340  -0.0126  1.0000  0.0178  -7.2265   0.0000   0.0000   0.0000   0.2262
 -11.800  -1.2318   0.01864   0.01321  -0.0123  1.0000  0.0178  -7.1282   0.0000   0.0000   0.0000   0.2266
 -11.700  -1.2232   0.01847   0.01303  -0.0119  1.0000  0.0179  -7.0296   0.0000   0.0000   0.0000   0.2269
 -11.600  -1.2179   0.01800   0.01249  -0.0112  1.0000  0.0183  -6.9601   0.0000   0.0000   0.0000   0.2277
 -11.500  -1.2125   0.01753   0.01198  -0.0104  1.0000  0.0188  -6.8905   0.0000   0.0000   0.0000   0.2284
 -11.400  -1.2057   0.01719   0.01161  -0.0098  1.0000  0.0193  -6.8087   0.0000   0.0000   0.0000   0.2290
 -11.300  -1.1979   0.01692   0.01133  -0.0093  1.0000  0.0197  -6.7195   0.0000   0.0000   0.0000   0.2295
 -11.200  -1.1896   0.01670   0.01111  -0.0090  1.0000  0.0201  -6.6264   0.0000   0.0000   0.0000   0.2299
 -11.100  -1.1811   0.01650   0.01090  -0.0086  1.0000  0.0205  -6.5316   0.0000   0.0000   0.0000   0.2303
 -11.000  -1.1724   0.01631   0.01071  -0.0083  1.0000  0.0208  -6.4363   0.0000   0.0000   0.0000   0.2306
 -10.900  -1.1637   0.01614   0.01053  -0.0079  1.0000  0.0211  -6.3412   0.0000   0.0000   0.0000   0.2310
 -10.800  -1.1548   0.01596   0.01035  -0.0076  1.0000  0.0214  -6.2464   0.0000   0.0000   0.0000   0.2314
 -10.700  -1.1459   0.01580   0.01017  -0.0073  1.0000  0.0217  -6.1522   0.0000   0.0000   0.0000   0.2317
 -10.600  -1.1370   0.01563   0.01000  -0.0070  1.0000  0.0220  -6.0586   0.0000   0.0000   0.0000   0.2321
 -10.500  -1.1281   0.01547   0.00982  -0.0066  1.0000  0.0223  -5.9654   0.0000   0.0000   0.0000   0.2325
 -10.400  -1.1191   0.01532   0.00965  -0.0063  1.0000  0.0226  -5.8725   0.0000   0.0000   0.0000   0.2329
 -10.300  -1.1101   0.01517   0.00949  -0.0060  1.0000  0.0229  -5.7800   0.0000   0.0000   0.0000   0.2333
 -10.200  -1.1010   0.01503   0.00933  -0.0056  1.0000  0.0231  -5.6877   0.0000   0.0000   0.0000   0.2336
 -10.100  -1.0919   0.01489   0.00919  -0.0053  1.0000  0.0233  -5.5955   0.0000   0.0000   0.0000   0.2340
 -10.000  -1.0827   0.01476   0.00904  -0.0050  1.0000  0.0235  -5.5034   0.0000   0.0000   0.0000   0.2344
  -9.900  -1.0735   0.01465   0.00891  -0.0047  1.0000  0.0237  -5.4116   0.0000   0.0000   0.0000   0.2348
  -9.800  -1.0643   0.01453   0.00879  -0.0044  1.0000  0.0238  -5.3201   0.0000   0.0000   0.0000   0.2352
  -9.700  -1.0574   0.01420   0.00842  -0.0037  1.0000  0.0245  -5.2538   0.0000   0.0000   0.0000   0.2360
  -9.600  -1.0500   0.01393   0.00813  -0.0030  1.0000  0.0254  -5.1864   0.0000   0.0000   0.0000   0.2366
  -9.500  -1.0419   0.01373   0.00792  -0.0025  1.0000  0.0261  -5.1136   0.0000   0.0000   0.0000   0.2373
  -9.400  -1.0336   0.01355   0.00775  -0.0020  1.0000  0.0268  -5.0379   0.0000   0.0000   0.0000   0.2378
  -9.300  -1.0251   0.01340   0.00760  -0.0015  1.0000  0.0274  -4.9612   0.0000   0.0000   0.0000   0.2384
  -9.200  -1.0166   0.01326   0.00746  -0.0011  1.0000  0.0279  -4.8843   0.0000   0.0000   0.0000   0.2390
  -9.100  -1.0079   0.01312   0.00733  -0.0006  1.0000  0.0285  -4.8073   0.0000   0.0000   0.0000   0.2395
  -9.000  -0.9992   0.01300   0.00720  -0.0002  1.0000  0.0290  -4.7304   0.0000   0.0000   0.0000   0.2401
  -8.900  -0.9905   0.01289   0.00708   0.0003  1.0000  0.0295  -4.6538   0.0000   0.0000   0.0000   0.2406
  -8.800  -0.9817   0.01278   0.00696   0.0007  1.0000  0.0299  -4.5776   0.0000   0.0000   0.0000   0.2412
  -8.700  -0.9730   0.01267   0.00684   0.0011  1.0000  0.0303  -4.5017   0.0000   0.0000   0.0000   0.2418
  -8.600  -0.9641   0.01258   0.00674   0.0016  1.0000  0.0307  -4.4256   0.0000   0.0000   0.0000   0.2424
  -8.500  -0.9553   0.01250   0.00664   0.0020  1.0000  0.0309  -4.3493   0.0000   0.0000   0.0000   0.2429
  -8.400  -0.9467   0.01238   0.00652   0.0025  1.0000  0.0314  -4.2762   0.0000   0.0000   0.0000   0.2436
  -8.300  -0.9393   0.01215   0.00628   0.0032  1.0000  0.0330  -4.2128   0.0000   0.0000   0.0000   0.2445
  -8.200  -0.9314   0.01198   0.00612   0.0038  1.0000  0.0344  -4.1444   0.0000   0.0000   0.0000   0.2452
  -8.100  -0.9232   0.01184   0.00599   0.0043  1.0000  0.0355  -4.0740   0.0000   0.0000   0.0000   0.2460
  -8.000  -0.9149   0.01172   0.00588   0.0049  1.0000  0.0365  -4.0031   0.0000   0.0000   0.0000   0.2467
  -7.900  -0.9065   0.01161   0.00577   0.0054  1.0000  0.0374  -3.9322   0.0000   0.0000   0.0000   0.2474
  -7.800  -0.8980   0.01151   0.00567   0.0059  1.0000  0.0383  -3.8616   0.0000   0.0000   0.0000   0.2482
  -7.700  -0.8894   0.01142   0.00557   0.0064  1.0000  0.0390  -3.7908   0.0000   0.0000   0.0000   0.2489
  -7.600  -0.8808   0.01133   0.00548   0.0069  1.0000  0.0396  -3.7201   0.0000   0.0000   0.0000   0.2496
  -7.500  -0.8721   0.01126   0.00540   0.0074  1.0000  0.0400  -3.6496   0.0000   0.0000   0.0000   0.2503
  -7.400  -0.8635   0.01117   0.00531   0.0078  1.0000  0.0406  -3.5807   0.0000   0.0000   0.0000   0.2511
  -7.300  -0.8557   0.01100   0.00514   0.0085  1.0000  0.0430  -3.5178   0.0000   0.0000   0.0000   0.2520
  -7.200  -0.8475   0.01087   0.00502   0.0090  1.0000  0.0451  -3.4522   0.0000   0.0000   0.0000   0.2529
  -7.100  -0.8369   0.01073   0.00490   0.0091  0.9998  0.0470  -3.3777   0.0000   0.0000   0.0000   0.2531
  -7.000  -0.8235   0.01061   0.00479   0.0085  0.9993  0.0488  -3.2943   0.0000   0.0000   0.0000   0.2528
  -6.900  -0.8101   0.01050   0.00469   0.0080  0.9987  0.0503  -3.2112   0.0000   0.0000   0.0000   0.2523
  -6.800  -0.7964   0.01042   0.00460   0.0074  0.9981  0.0514  -3.1288   0.0000   0.0000   0.0000   0.2519
  -6.700  -0.7829   0.01031   0.00449   0.0068  0.9975  0.0534  -3.0558   0.0000   0.0000   0.0000   0.2514
  -6.600  -0.7696   0.01015   0.00436   0.0063  0.9967  0.0579  -2.9849   0.0000   0.0000   0.0000   0.2510
  -6.500  -0.7563   0.01000   0.00426   0.0058  0.9960  0.0612  -2.9131   0.0000   0.0000   0.0000   0.2505
  -6.400  -0.7427   0.00989   0.00416   0.0052  0.9952  0.0639  -2.8409   0.0000   0.0000   0.0000   0.2499
  -6.300  -0.7288   0.00980   0.00408   0.0046  0.9945  0.0657  -2.7685   0.0000   0.0000   0.0000   0.2493
  -6.200  -0.7150   0.00970   0.00398   0.0040  0.9938  0.0692  -2.6976   0.0000   0.0000   0.0000   0.2486
  -6.100  -0.7014   0.00955   0.00386   0.0034  0.9931  0.0748  -2.6279   0.0000   0.0000   0.0000   0.2479
  -6.000  -0.6876   0.00942   0.00377   0.0027  0.9924  0.0791  -2.5578   0.0000   0.0000   0.0000   0.2472
  -5.900  -0.6735   0.00932   0.00368   0.0020  0.9918  0.0824  -2.4874   0.0000   0.0000   0.0000   0.2463
  -5.800  -0.6594   0.00922   0.00360   0.0014  0.9912  0.0863  -2.4176   0.0000   0.0000   0.0000   0.2454
  -5.700  -0.6455   0.00907   0.00350   0.0007  0.9906  0.0938  -2.3494   0.0000   0.0000   0.0000   0.2445
  -5.600  -0.6313   0.00894   0.00341  -0.0000  0.9901  0.0998  -2.2808   0.0000   0.0000   0.0000   0.2435
  -5.500  -0.6169   0.00885   0.00334  -0.0008  0.9896  0.1038  -2.2120   0.0000   0.0000   0.0000   0.2423
  -5.400  -0.6053   0.00871   0.00324  -0.0009  0.9882  0.1128  -2.1517   0.0000   0.0000   0.0000   0.2421
  -5.300  -0.5932   0.00858   0.00315  -0.0012  0.9868  0.1199  -2.0957   0.0000   0.0000   0.0000   0.2418
  -5.200  -0.5804   0.00848   0.00308  -0.0015  0.9854  0.1249  -2.0392   0.0000   0.0000   0.0000   0.2411
  -5.100  -0.5673   0.00836   0.00299  -0.0020  0.9840  0.1336  -1.9831   0.0000   0.0000   0.0000   0.2403
  -5.000  -0.5542   0.00823   0.00290  -0.0025  0.9826  0.1422  -1.9271   0.0000   0.0000   0.0000   0.2395
  -4.900  -0.5409   0.00813   0.00283  -0.0030  0.9813  0.1485  -1.8709   0.0000   0.0000   0.0000   0.2385
  -4.800  -0.5279   0.00799   0.00275  -0.0034  0.9797  0.1599  -1.8163   0.0000   0.0000   0.0000   0.2376
  -4.700  -0.5148   0.00787   0.00267  -0.0038  0.9780  0.1696  -1.7619   0.0000   0.0000   0.0000   0.2366
  -4.600  -0.5018   0.00776   0.00260  -0.0043  0.9763  0.1791  -1.7080   0.0000   0.0000   0.0000   0.2356
  -4.500  -0.4888   0.00762   0.00252  -0.0047  0.9747  0.1905  -1.6549   0.0000   0.0000   0.0000   0.2345
  -4.400  -0.4753   0.00754   0.00246  -0.0052  0.9731  0.1979  -1.6009   0.0000   0.0000   0.0000   0.2332
  -4.300  -0.4621   0.00741   0.00239  -0.0057  0.9713  0.2103  -1.5510   0.0000   0.0000   0.0000   0.2319
  -4.200  -0.4498   0.00731   0.00233  -0.0060  0.9691  0.2204  -1.5057   0.0000   0.0000   0.0000   0.2310
  -4.100  -0.4401   0.00721   0.00228  -0.0056  0.9656  0.2308  -1.4658   0.0000   0.0000   0.0000   0.2316
  -4.000  -0.4299   0.00710   0.00221  -0.0054  0.9620  0.2424  -1.4253   0.0000   0.0000   0.0000   0.2319
  -3.900  -0.4188   0.00702   0.00215  -0.0053  0.9584  0.2512  -1.3833   0.0000   0.0000   0.0000   0.2317
  -3.800  -0.4076   0.00690   0.00209  -0.0053  0.9548  0.2635  -1.3416   0.0000   0.0000   0.0000   0.2314
  -3.700  -0.3960   0.00682   0.00204  -0.0054  0.9513  0.2726  -1.2994   0.0000   0.0000   0.0000   0.2310
  -3.600  -0.3847   0.00672   0.00198  -0.0054  0.9477  0.2842  -1.2580   0.0000   0.0000   0.0000   0.2306
  -3.500  -0.3741   0.00663   0.00193  -0.0053  0.9439  0.2959  -1.2203   0.0000   0.0000   0.0000   0.2306
  -3.400  -0.3637   0.00656   0.00189  -0.0050  0.9395  0.3062  -1.1854   0.0000   0.0000   0.0000   0.2308
  -3.300  -0.3534   0.00646   0.00184  -0.0048  0.9345  0.3183  -1.1508   0.0000   0.0000   0.0000   0.2310
  -3.200  -0.3426   0.00641   0.00180  -0.0047  0.9294  0.3266  -1.1157   0.0000   0.0000   0.0000   0.2311
  -3.100  -0.3321   0.00632   0.00174  -0.0045  0.9244  0.3385  -1.0813   0.0000   0.0000   0.0000   0.2313
  -3.000  -0.3214   0.00625   0.00170  -0.0043  0.9194  0.3497  -1.0469   0.0000   0.0000   0.0000   0.2313
  -2.900  -0.3108   0.00618   0.00167  -0.0042  0.9144  0.3609  -1.0142   0.0000   0.0000   0.0000   0.2314
  -2.800  -0.3003   0.00610   0.00162  -0.0040  0.9085  0.3727  -0.9841   0.0000   0.0000   0.0000   0.2316
  -2.700  -0.2896   0.00606   0.00158  -0.0038  0.9021  0.3812  -0.9539   0.0000   0.0000   0.0000   0.2317
  -2.600  -0.2792   0.00599   0.00154  -0.0036  0.8958  0.3932  -0.9245   0.0000   0.0000   0.0000   0.2321
  -2.500  -0.2684   0.00594   0.00150  -0.0035  0.8901  0.4040  -0.8946   0.0000   0.0000   0.0000   0.2320
  -2.400  -0.2578   0.00587   0.00147  -0.0033  0.8836  0.4157  -0.8657   0.0000   0.0000   0.0000   0.2321
  -2.300  -0.2472   0.00581   0.00144  -0.0032  0.8763  0.4271  -0.8396   0.0000   0.0000   0.0000   0.2323
  -2.200  -0.2365   0.00579   0.00140  -0.0030  0.8688  0.4358  -0.8136   0.0000   0.0000   0.0000   0.2325
  -2.100  -0.2259   0.00572   0.00138  -0.0028  0.8624  0.4478  -0.7879   0.0000   0.0000   0.0000   0.2326
  -2.000  -0.2150   0.00569   0.00135  -0.0027  0.8549  0.4584  -0.7620   0.0000   0.0000   0.0000   0.2325
  -1.900  -0.2045   0.00564   0.00132  -0.0025  0.8466  0.4701  -0.7386   0.0000   0.0000   0.0000   0.2328
  -1.800  -0.1939   0.00561   0.00129  -0.0024  0.8386  0.4810  -0.7162   0.0000   0.0000   0.0000   0.2331
  -1.700  -0.1828   0.00558   0.00127  -0.0023  0.8311  0.4900  -0.6934   0.0000   0.0000   0.0000   0.2328
  -1.600  -0.1723   0.00553   0.00124  -0.0021  0.8225  0.5020  -0.6712   0.0000   0.0000   0.0000   0.2330
  -1.400  -0.1508   0.00548   0.00120  -0.0018  0.8057  0.5238  -0.6312   0.0000   0.0000   0.0000   0.2333
  -1.300  -0.1400   0.00545   0.00118  -0.0017  0.7964  0.5345  -0.6116   0.0000   0.0000   0.0000   0.2333
  -1.200  -0.1293   0.00545   0.00116  -0.0015  0.7867  0.5435  -0.5923   0.0000   0.0000   0.0000   0.2336
  -1.100  -0.1186   0.00541   0.00115  -0.0014  0.7786  0.5555  -0.5749   0.0000   0.0000   0.0000   0.2335
  -1.000  -0.1077   0.00540   0.00114  -0.0013  0.7690  0.5660  -0.5578   0.0000   0.0000   0.0000   0.2333
  -0.800  -0.0862   0.00536   0.00111  -0.0010  0.7502  0.5874  -0.5244   0.0000   0.0000   0.0000   0.2336
  -0.700  -0.0753   0.00536   0.00110  -0.0009  0.7400  0.5965  -0.5095   0.0000   0.0000   0.0000   0.2333
  -0.600  -0.0649   0.00534   0.00109  -0.0007  0.7301  0.6082  -0.4950   0.0000   0.0000   0.0000   0.2344
  -0.500  -0.0538   0.00533   0.00108  -0.0006  0.7211  0.6188  -0.4801   0.0000   0.0000   0.0000   0.2334
  -0.400  -0.0431   0.00532   0.00107  -0.0005  0.7103  0.6288  -0.4659   0.0000   0.0000   0.0000   0.2339
  -0.300  -0.0325   0.00532   0.00107  -0.0004  0.7006  0.6396  -0.4530   0.0000   0.0000   0.0000   0.2345
  -0.200  -0.0214   0.00532   0.00107  -0.0003  0.6907  0.6489  -0.4399   0.0000   0.0000   0.0000   0.2320
  -0.100  -0.0109   0.00531   0.00106  -0.0001  0.6799  0.6599  -0.4273   0.0000   0.0000   0.0000   0.2362
   0.000   0.0000   0.00531   0.00106  -0.0000  0.6707  0.6707  -0.4147   0.0000   0.0000   0.0000   0.4484
   0.100   0.0109   0.00531   0.00106   0.0001  0.6599  0.6799  -0.4273   0.0000   0.0000   0.0000   0.2362
   0.200   0.0214   0.00532   0.00107   0.0003  0.6489  0.6907  -0.4399   0.0000   0.0000   0.0000   0.2320
   0.300   0.0325   0.00532   0.00107   0.0004  0.6396  0.7006  -0.4530   0.0000   0.0000   0.0000   0.2345
   0.400   0.0431   0.00532   0.00107   0.0005  0.6288  0.7103  -0.4659   0.0000   0.0000   0.0000   0.2339
   0.500   0.0538   0.00533   0.00108   0.0006  0.6188  0.7211  -0.4801   0.0000   0.0000   0.0000   0.2334
   0.600   0.0649   0.00534   0.00109   0.0007  0.6082  0.7301  -0.4950   0.0000   0.0000   0.0000   0.2344
   0.700   0.0753   0.00536   0.00110   0.0009  0.5965  0.7400  -0.5095   0.0000   0.0000   0.0000   0.2333
   0.800   0.0862   0.00536   0.00111   0.0010  0.5874  0.7502  -0.5244   0.0000   0.0000   0.0000   0.2336
   1.000   0.1077   0.00540   0.00114   0.0013  0.5660  0.7690  -0.5578   0.0000   0.0000   0.0000   0.2333
   1.100   0.1186   0.00541   0.00115   0.0014  0.5555  0.7786  -0.5749   0.0000   0.0000   0.0000   0.2335
   1.200   0.1293   0.00545   0.00116   0.0015  0.5435  0.7867  -0.5923   0.0000   0.0000   0.0000   0.2336
   1.300   0.1400   0.00545   0.00118   0.0017  0.5345  0.7964  -0.6116   0.0000   0.0000   0.0000   0.2333
   1.400   0.1508   0.00548   0.00120   0.0018  0.5238  0.8057  -0.6312   0.0000   0.0000   0.0000   0.2333
   1.600   0.1723   0.00553   0.00124   0.0021  0.5020  0.8225  -0.6712   0.0000   0.0000   0.0000   0.2330
   1.700   0.1828   0.00558   0.00127   0.0023  0.4900  0.8311  -0.6934   0.0000   0.0000   0.0000   0.2328
   1.800   0.1939   0.00561   0.00129   0.0024  0.4810  0.8386  -0.7162   0.0000   0.0000   0.0000   0.2331
   1.900   0.2045   0.00564   0.00132   0.0025  0.4701  0.8466  -0.7386   0.0000   0.0000   0.0000   0.2328
   2.000   0.2150   0.00569   0.00135   0.0027  0.4584  0.8549  -0.7620   0.0000   0.0000   0.0000   0.2325
   2.100   0.2259   0.00572   0.00138   0.0028  0.4478  0.8624  -0.7879   0.0000   0.0000   0.0000   0.2326
   2.200   0.2365   0.00579   0.00140   0.0030  0.4358  0.8688  -0.8137   0.0000   0.0000   0.0000   0.2326
   2.300   0.2472   0.00581   0.00144   0.0032  0.4271  0.8763  -0.8396   0.0000   0.0000   0.0000   0.2323
   2.400   0.2578   0.00587   0.00147   0.0033  0.4157  0.8836  -0.8657   0.0000   0.0000   0.0000   0.2321
   2.500   0.2684   0.00594   0.00150   0.0035  0.4040  0.8901  -0.8946   0.0000   0.0000   0.0000   0.2320
   2.600   0.2792   0.00599   0.00154   0.0036  0.3932  0.8958  -0.9245   0.0000   0.0000   0.0000   0.2321
   2.700   0.2896   0.00606   0.00158   0.0038  0.3812  0.9021  -0.9539   0.0000   0.0000   0.0000   0.2317
   2.800   0.3003   0.00610   0.00162   0.0040  0.3727  0.9085  -0.9841   0.0000   0.0000   0.0000   0.2316
   2.900   0.3108   0.00618   0.00167   0.0042  0.3609  0.9144  -1.0142   0.0000   0.0000   0.0000   0.2314
   3.000   0.3214   0.00625   0.00170   0.0043  0.3497  0.9194  -1.0469   0.0000   0.0000   0.0000   0.2313
   3.100   0.3321   0.00632   0.00174   0.0045  0.3384  0.9244  -1.0813   0.0000   0.0000   0.0000   0.2313
   3.200   0.3426   0.00641   0.00180   0.0047  0.3266  0.9294  -1.1157   0.0000   0.0000   0.0000   0.2311
   3.300   0.3534   0.00646   0.00184   0.0048  0.3183  0.9345  -1.1509   0.0000   0.0000   0.0000   0.2311
   3.400   0.3638   0.00656   0.00189   0.0050  0.3062  0.9395  -1.1855   0.0000   0.0000   0.0000   0.2308
   3.500   0.3741   0.00663   0.00193   0.0052  0.2959  0.9439  -1.2203   0.0000   0.0000   0.0000   0.2306
   3.600   0.3847   0.00672   0.00198   0.0054  0.2842  0.9477  -1.2581   0.0000   0.0000   0.0000   0.2306
   3.700   0.3961   0.00682   0.00204   0.0054  0.2726  0.9513  -1.2994   0.0000   0.0000   0.0000   0.2310
   3.800   0.4077   0.00690   0.00209   0.0053  0.2635  0.9548  -1.3417   0.0000   0.0000   0.0000   0.2314
   3.900   0.4188   0.00702   0.00215   0.0053  0.2512  0.9584  -1.3833   0.0000   0.0000   0.0000   0.2317
   4.000   0.4299   0.00710   0.00221   0.0054  0.2424  0.9620  -1.4253   0.0000   0.0000   0.0000   0.2319
   4.100   0.4401   0.00721   0.00227   0.0056  0.2308  0.9656  -1.4659   0.0000   0.0000   0.0000   0.2316
   4.200   0.4498   0.00731   0.00233   0.0060  0.2204  0.9691  -1.5057   0.0000   0.0000   0.0000   0.2310
   4.300   0.4621   0.00741   0.00239   0.0057  0.2103  0.9713  -1.5511   0.0000   0.0000   0.0000   0.2319
   4.400   0.4753   0.00754   0.00246   0.0052  0.1979  0.9731  -1.6009   0.0000   0.0000   0.0000   0.2332
   4.500   0.4888   0.00762   0.00252   0.0047  0.1905  0.9747  -1.6549   0.0000   0.0000   0.0000   0.2345
   4.600   0.5018   0.00776   0.00260   0.0043  0.1791  0.9764  -1.7081   0.0000   0.0000   0.0000   0.2356
   4.700   0.5148   0.00787   0.00267   0.0038  0.1696  0.9780  -1.7619   0.0000   0.0000   0.0000   0.2366
   4.800   0.5279   0.00799   0.00275   0.0034  0.1599  0.9797  -1.8164   0.0000   0.0000   0.0000   0.2376
   4.900   0.5409   0.00813   0.00283   0.0029  0.1485  0.9813  -1.8709   0.0000   0.0000   0.0000   0.2385
   5.000   0.5542   0.00823   0.00290   0.0025  0.1422  0.9827  -1.9271   0.0000   0.0000   0.0000   0.2395
   5.100   0.5674   0.00836   0.00299   0.0020  0.1336  0.9840  -1.9831   0.0000   0.0000   0.0000   0.2404
   5.200   0.5804   0.00848   0.00308   0.0015  0.1249  0.9854  -2.0392   0.0000   0.0000   0.0000   0.2411
   5.300   0.5932   0.00858   0.00315   0.0012  0.1199  0.9868  -2.0957   0.0000   0.0000   0.0000   0.2418
   5.400   0.6053   0.00871   0.00323   0.0009  0.1128  0.9883  -2.1517   0.0000   0.0000   0.0000   0.2421
   5.500   0.6169   0.00885   0.00334   0.0008  0.1038  0.9896  -2.2122   0.0000   0.0000   0.0000   0.2423
   5.600   0.6314   0.00894   0.00341   0.0000  0.0998  0.9901  -2.2810   0.0000   0.0000   0.0000   0.2435
   5.700   0.6455   0.00907   0.00350  -0.0007  0.0938  0.9906  -2.3495   0.0000   0.0000   0.0000   0.2445
   5.800   0.6595   0.00922   0.00360  -0.0014  0.0863  0.9912  -2.4178   0.0000   0.0000   0.0000   0.2454
   5.900   0.6736   0.00931   0.00368  -0.0020  0.0823  0.9918  -2.4876   0.0000   0.0000   0.0000   0.2464
   6.000   0.6877   0.00941   0.00377  -0.0027  0.0790  0.9924  -2.5580   0.0000   0.0000   0.0000   0.2472
   6.100   0.7015   0.00955   0.00386  -0.0034  0.0747  0.9931  -2.6281   0.0000   0.0000   0.0000   0.2480
   6.200   0.7151   0.00970   0.00397  -0.0040  0.0692  0.9938  -2.6978   0.0000   0.0000   0.0000   0.2486
   6.300   0.7289   0.00980   0.00408  -0.0046  0.0657  0.9945  -2.7687   0.0000   0.0000   0.0000   0.2493
   6.400   0.7427   0.00989   0.00416  -0.0052  0.0639  0.9953  -2.8411   0.0000   0.0000   0.0000   0.2499
   6.500   0.7564   0.01000   0.00426  -0.0058  0.0612  0.9960  -2.9133   0.0000   0.0000   0.0000   0.2505
   6.600   0.7697   0.01015   0.00436  -0.0063  0.0579  0.9968  -2.9851   0.0000   0.0000   0.0000   0.2510
   6.700   0.7830   0.01031   0.00449  -0.0069  0.0534  0.9975  -3.0560   0.0000   0.0000   0.0000   0.2514
   6.800   0.7965   0.01042   0.00460  -0.0074  0.0514  0.9982  -3.1291   0.0000   0.0000   0.0000   0.2519
   6.900   0.8102   0.01050   0.00469  -0.0080  0.0503  0.9988  -3.2114   0.0000   0.0000   0.0000   0.2524
   7.000   0.8236   0.01060   0.00479  -0.0085  0.0488  0.9993  -3.2946   0.0000   0.0000   0.0000   0.2528
   7.100   0.8370   0.01073   0.00490  -0.0091  0.0470  0.9998  -3.3780   0.0000   0.0000   0.0000   0.2532
   7.200   0.8473   0.01086   0.00502  -0.0090  0.0451  1.0000  -3.4515   0.0000   0.0000   0.0000   0.2528
   7.300   0.8555   0.01100   0.00513  -0.0084  0.0431  1.0000  -3.5171   0.0000   0.0000   0.0000   0.2520
   7.400   0.8633   0.01117   0.00530  -0.0078  0.0406  1.0000  -3.5801   0.0000   0.0000   0.0000   0.2511
   7.500   0.8719   0.01126   0.00540  -0.0073  0.0400  1.0000  -3.6489   0.0000   0.0000   0.0000   0.2503
   7.600   0.8806   0.01133   0.00548  -0.0068  0.0396  1.0000  -3.7195   0.0000   0.0000   0.0000   0.2496
   7.700   0.8893   0.01141   0.00557  -0.0064  0.0390  1.0000  -3.7901   0.0000   0.0000   0.0000   0.2489
   7.800   0.8979   0.01150   0.00567  -0.0059  0.0383  1.0000  -3.8609   0.0000   0.0000   0.0000   0.2481
   7.900   0.9064   0.01160   0.00577  -0.0054  0.0374  1.0000  -3.9316   0.0000   0.0000   0.0000   0.2474
   8.000   0.9148   0.01172   0.00588  -0.0048  0.0365  1.0000  -4.0025   0.0000   0.0000   0.0000   0.2467
   8.100   0.9231   0.01184   0.00599  -0.0043  0.0355  1.0000  -4.0734   0.0000   0.0000   0.0000   0.2460
   8.200   0.9312   0.01198   0.00612  -0.0038  0.0344  1.0000  -4.1439   0.0000   0.0000   0.0000   0.2452
   8.300   0.9392   0.01215   0.00628  -0.0032  0.0330  1.0000  -4.2123   0.0000   0.0000   0.0000   0.2444
   8.400   0.9466   0.01238   0.00652  -0.0025  0.0314  1.0000  -4.2758   0.0000   0.0000   0.0000   0.2436
   8.500   0.9551   0.01249   0.00664  -0.0020  0.0309  1.0000  -4.3488   0.0000   0.0000   0.0000   0.2429
   8.600   0.9640   0.01258   0.00674  -0.0016  0.0307  1.0000  -4.4251   0.0000   0.0000   0.0000   0.2423
   8.700   0.9729   0.01267   0.00684  -0.0011  0.0303  1.0000  -4.5012   0.0000   0.0000   0.0000   0.2418
   8.800   0.9816   0.01277   0.00695  -0.0007  0.0299  1.0000  -4.5772   0.0000   0.0000   0.0000   0.2412
   8.900   0.9904   0.01288   0.00707  -0.0002  0.0295  1.0000  -4.6535   0.0000   0.0000   0.0000   0.2406
   9.000   0.9991   0.01300   0.00720   0.0002  0.0290  1.0000  -4.7301   0.0000   0.0000   0.0000   0.2400
   9.100   1.0079   0.01312   0.00732   0.0006  0.0285  1.0000  -4.8070   0.0000   0.0000   0.0000   0.2395
   9.200   1.0165   0.01325   0.00746   0.0011  0.0279  1.0000  -4.8840   0.0000   0.0000   0.0000   0.2389
   9.300   1.0251   0.01340   0.00760   0.0016  0.0274  1.0000  -4.9610   0.0000   0.0000   0.0000   0.2384
   9.400   1.0335   0.01355   0.00775   0.0020  0.0268  1.0000  -5.0377   0.0000   0.0000   0.0000   0.2378
   9.500   1.0419   0.01373   0.00792   0.0025  0.0261  1.0000  -5.1135   0.0000   0.0000   0.0000   0.2372
   9.600   1.0499   0.01393   0.00813   0.0030  0.0254  1.0000  -5.1864   0.0000   0.0000   0.0000   0.2366
   9.700   1.0574   0.01420   0.00842   0.0037  0.0245  1.0000  -5.2538   0.0000   0.0000   0.0000   0.2360
   9.800   1.0643   0.01453   0.00879   0.0044  0.0238  1.0000  -5.3202   0.0000   0.0000   0.0000   0.2352
   9.900   1.0736   0.01465   0.00891   0.0047  0.0237  1.0000  -5.4118   0.0000   0.0000   0.0000   0.2348
  10.000   1.0828   0.01476   0.00904   0.0050  0.0235  1.0000  -5.5037   0.0000   0.0000   0.0000   0.2344
  10.100   1.0920   0.01489   0.00919   0.0053  0.0233  1.0000  -5.5958   0.0000   0.0000   0.0000   0.2340
  10.200   1.1011   0.01502   0.00933   0.0056  0.0231  1.0000  -5.6881   0.0000   0.0000   0.0000   0.2337
  10.300   1.1102   0.01517   0.00949   0.0059  0.0229  1.0000  -5.7805   0.0000   0.0000   0.0000   0.2333
  10.400   1.1192   0.01532   0.00965   0.0063  0.0226  1.0000  -5.8731   0.0000   0.0000   0.0000   0.2329
  10.500   1.1282   0.01547   0.00982   0.0066  0.0223  1.0000  -5.9660   0.0000   0.0000   0.0000   0.2325
  10.600   1.1372   0.01563   0.00999   0.0069  0.0220  1.0000  -6.0593   0.0000   0.0000   0.0000   0.2321
  10.700   1.1461   0.01580   0.01017   0.0072  0.0217  1.0000  -6.1531   0.0000   0.0000   0.0000   0.2318
  10.800   1.1550   0.01596   0.01035   0.0076  0.0214  1.0000  -6.2473   0.0000   0.0000   0.0000   0.2314
  10.900   1.1639   0.01613   0.01053   0.0079  0.0211  1.0000  -6.3422   0.0000   0.0000   0.0000   0.2310
  11.000   1.1727   0.01631   0.01071   0.0082  0.0208  1.0000  -6.4374   0.0000   0.0000   0.0000   0.2307
  11.100   1.1813   0.01650   0.01090   0.0086  0.0205  1.0000  -6.5327   0.0000   0.0000   0.0000   0.2303
  11.200   1.1899   0.01670   0.01110   0.0089  0.0201  1.0000  -6.6276   0.0000   0.0000   0.0000   0.2299
  11.300   1.1982   0.01692   0.01133   0.0093  0.0197  1.0000  -6.7207   0.0000   0.0000   0.0000   0.2295
  11.400   1.2059   0.01719   0.01161   0.0097  0.0193  1.0000  -6.8100   0.0000   0.0000   0.0000   0.2290
  11.500   1.2128   0.01753   0.01198   0.0103  0.0188  1.0000  -6.8918   0.0000   0.0000   0.0000   0.2285
  11.600   1.2182   0.01801   0.01250   0.0111  0.0182  1.0000  -6.9612   0.0000   0.0000   0.0000   0.2277
  11.700   1.2236   0.01847   0.01302   0.0119  0.0179  1.0000  -7.0315   0.0000   0.0000   0.0000   0.2270
  11.800   1.2322   0.01864   0.01321   0.0122  0.0178  1.0000  -7.1302   0.0000   0.0000   0.0000   0.2267
  11.900   1.2408   0.01882   0.01340   0.0125  0.0178  1.0000  -7.2286   0.0000   0.0000   0.0000   0.2263
  12.000   1.2492   0.01900   0.01360   0.0128  0.0177  1.0000  -7.3266   0.0000   0.0000   0.0000   0.2260
  12.100   1.2575   0.01919   0.01382   0.0132  0.0176  1.0000  -7.4242   0.0000   0.0000   0.0000   0.2256
  12.200   1.2656   0.01940   0.01404   0.0136  0.0175  1.0000  -7.5212   0.0000   0.0000   0.0000   0.2252
  12.300   1.2735   0.01961   0.01427   0.0140  0.0173  1.0000  -7.6177   0.0000   0.0000   0.0000   0.2248
  12.400   1.2813   0.01983   0.01451   0.0144  0.0172  1.0000  -7.7135   0.0000   0.0000   0.0000   0.2244
  12.500   1.2889   0.02006   0.01476   0.0148  0.0171  1.0000  -7.8088   0.0000   0.0000   0.0000   0.2240
  12.600   1.2964   0.02029   0.01502   0.0153  0.0169  1.0000  -7.9035   0.0000   0.0000   0.0000   0.2235
  12.700   1.3037   0.02054   0.01528   0.0157  0.0168  1.0000  -7.9977   0.0000   0.0000   0.0000   0.2231
  12.800   1.3108   0.02079   0.01556   0.0162  0.0166  1.0000  -8.0914   0.0000   0.0000   0.0000   0.2226
  12.900   1.3178   0.02104   0.01583   0.0167  0.0165  1.0000  -8.1845   0.0000   0.0000   0.0000   0.2221
  13.000   1.3246   0.02130   0.01612   0.0172  0.0163  1.0000  -8.2772   0.0000   0.0000   0.0000   0.2217
  13.100   1.3313   0.02157   0.01640   0.0178  0.0161  1.0000  -8.3694   0.0000   0.0000   0.0000   0.2212
  13.200   1.3373   0.02183   0.01669   0.0184  0.0160  1.0000  -8.4591   0.0000   0.0000   0.0000   0.2206
  13.300   1.3428   0.02210   0.01698   0.0191  0.0159  1.0000  -8.5458   0.0000   0.0000   0.0000   0.2199
  13.400   1.3480   0.02238   0.01728   0.0199  0.0157  1.0000  -8.6313   0.0000   0.0000   0.0000   0.2193
  13.500   1.3530   0.02267   0.01759   0.0207  0.0156  1.0000  -8.7162   0.0000   0.0000   0.0000   0.2186
  13.600   1.3579   0.02296   0.01792   0.0214  0.0154  1.0000  -8.8008   0.0000   0.0000   0.0000   0.2179
  13.700   1.3627   0.02328   0.01825   0.0222  0.0153  1.0000  -8.8845   0.0000   0.0000   0.0000   0.2173
  13.800   1.3672   0.02361   0.01860   0.0229  0.0152  1.0000  -8.9670   0.0000   0.0000   0.0000   0.2166
  13.900   1.3716   0.02396   0.01897   0.0236  0.0150  1.0000  -9.0490   0.0000   0.0000   0.0000   0.2160
  14.000   1.3757   0.02433   0.01937   0.0243  0.0149  1.0000  -9.1286   0.0000   0.0000   0.0000   0.2153
  14.100   1.3794   0.02474   0.01980   0.0251  0.0148  1.0000  -9.2057   0.0000   0.0000   0.0000   0.2147
  14.200   1.3828   0.02518   0.02026   0.0258  0.0146  1.0000  -9.2807   0.0000   0.0000   0.0000   0.2140
  14.300   1.3857   0.02566   0.02077   0.0265  0.0145  1.0000  -9.3515   0.0000   0.0000   0.0000   0.2133
  14.400   1.3881   0.02620   0.02134   0.0272  0.0143  1.0000  -9.4179   0.0000   0.0000   0.0000   0.2127
  14.500   1.3896   0.02680   0.02198   0.0279  0.0142  1.0000  -9.4778   0.0000   0.0000   0.0000   0.2120
  14.600   1.3903   0.02749   0.02271   0.0286  0.0140  1.0000  -9.5309   0.0000   0.0000   0.0000   0.2113
  14.700   1.3900   0.02828   0.02354   0.0293  0.0139  1.0000  -9.5762   0.0000   0.0000   0.0000   0.2106
  14.800   1.3888   0.02918   0.02449   0.0299  0.0137  1.0000  -9.6130   0.0000   0.0000   0.0000   0.2099
  14.900   1.3863   0.03023   0.02560   0.0305  0.0136  1.0000  -9.6389   0.0000   0.0000   0.0000   0.2093
  15.000   1.3824   0.03143   0.02687   0.0310  0.0135  1.0000  -9.6533   0.0000   0.0000   0.0000   0.2086


