xflr5 v6.61

 Calculated polar for: NACA 0012

 1 1 Reynolds number fixed          Mach number fixed         

 xtrf =   1.000 (top)        1.000 (bottom)
 Mach =   0.000     Re =     0.600 e 6     Ncrit =   9.000

  alpha     CL        CD       CDp       Cm    Top Xtr Bot Xtr   Cpmin    Chinge    XCp    
 ------- -------- --------- --------- -------- ------- ------- -------- --------- ---------
 -15.000  -1.2158   0.04999   0.04565  -0.0318  1.0000  0.0179  -8.1710   0.0000   0.0000   0.0000   0.2046
 -14.900  -1.2248   0.04765   0.04321  -0.0324  1.0000  0.0180  -8.2139   0.0000   0.0000   0.0000   0.2045
 -14.800  -1.2326   0.04549   0.04096  -0.0329  1.0000  0.0181  -8.2462   0.0000   0.0000   0.0000   0.2045
 -14.700  -1.2391   0.04355   0.03893  -0.0332  1.0000  0.0183  -8.2663   0.0000   0.0000   0.0000   0.2046
 -14.600  -1.2444   0.04180   0.03711  -0.0334  1.0000  0.0184  -8.2745   0.0000   0.0000   0.0000   0.2048
 -14.500  -1.2485   0.04024   0.03548  -0.0335  1.0000  0.0185  -8.2717   0.0000   0.0000   0.0000   0.2050
 -14.400  -1.2516   0.03885   0.03403  -0.0335  1.0000  0.0187  -8.2586   0.0000   0.0000   0.0000   0.2053
 -14.300  -1.2537   0.03761   0.03274  -0.0334  1.0000  0.0188  -8.2363   0.0000   0.0000   0.0000   0.2056
 -14.200  -1.2549   0.03648   0.03156  -0.0333  1.0000  0.0190  -8.2058   0.0000   0.0000   0.0000   0.2060
 -14.100  -1.2552   0.03547   0.03051  -0.0331  1.0000  0.0191  -8.1678   0.0000   0.0000   0.0000   0.2063
 -14.000  -1.2549   0.03456   0.02956  -0.0329  1.0000  0.0192  -8.1239   0.0000   0.0000   0.0000   0.2067
 -13.900  -1.2540   0.03374   0.02870  -0.0326  1.0000  0.0194  -8.0750   0.0000   0.0000   0.0000   0.2071
 -13.800  -1.2526   0.03298   0.02791  -0.0322  1.0000  0.0195  -8.0220   0.0000   0.0000   0.0000   0.2075
 -13.700  -1.2508   0.03229   0.02719  -0.0318  1.0000  0.0197  -7.9656   0.0000   0.0000   0.0000   0.2080
 -13.600  -1.2485   0.03165   0.02651  -0.0314  1.0000  0.0198  -7.9061   0.0000   0.0000   0.0000   0.2085
 -13.500  -1.2460   0.03104   0.02587  -0.0310  1.0000  0.0200  -7.8445   0.0000   0.0000   0.0000   0.2089
 -13.400  -1.2433   0.03047   0.02527  -0.0305  1.0000  0.0201  -7.7817   0.0000   0.0000   0.0000   0.2095
 -13.300  -1.2403   0.02993   0.02470  -0.0300  1.0000  0.0203  -7.7175   0.0000   0.0000   0.0000   0.2100
 -13.200  -1.2373   0.02942   0.02416  -0.0294  1.0000  0.0204  -7.6529   0.0000   0.0000   0.0000   0.2106
 -13.100  -1.2340   0.02892   0.02363  -0.0288  1.0000  0.0206  -7.5871   0.0000   0.0000   0.0000   0.2111
 -13.000  -1.2306   0.02845   0.02312  -0.0282  1.0000  0.0208  -7.5208   0.0000   0.0000   0.0000   0.2118
 -12.900  -1.2270   0.02799   0.02263  -0.0276  1.0000  0.0210  -7.4540   0.0000   0.0000   0.0000   0.2124
 -12.800  -1.2233   0.02755   0.02217  -0.0269  1.0000  0.0212  -7.3862   0.0000   0.0000   0.0000   0.2130
 -12.700  -1.2194   0.02714   0.02172  -0.0262  1.0000  0.0214  -7.3173   0.0000   0.0000   0.0000   0.2137
 -12.600  -1.2152   0.02676   0.02130  -0.0255  1.0000  0.0216  -7.2468   0.0000   0.0000   0.0000   0.2144
 -12.500  -1.2109   0.02639   0.02090  -0.0248  1.0000  0.0218  -7.1752   0.0000   0.0000   0.0000   0.2151
 -12.400  -1.2064   0.02603   0.02052  -0.0240  1.0000  0.0220  -7.1033   0.0000   0.0000   0.0000   0.2158
 -12.300  -1.2018   0.02570   0.02015  -0.0233  1.0000  0.0222  -7.0306   0.0000   0.0000   0.0000   0.2165
 -12.200  -1.1970   0.02538   0.01980  -0.0225  1.0000  0.0225  -6.9570   0.0000   0.0000   0.0000   0.2172
 -12.100  -1.1919   0.02507   0.01946  -0.0217  1.0000  0.0227  -6.8825   0.0000   0.0000   0.0000   0.2179
 -12.000  -1.1865   0.02478   0.01912  -0.0210  1.0000  0.0229  -6.8064   0.0000   0.0000   0.0000   0.2186
 -11.900  -1.1806   0.02451   0.01881  -0.0204  1.0000  0.0231  -6.7278   0.0000   0.0000   0.0000   0.2192
 -11.800  -1.1740   0.02423   0.01851  -0.0198  1.0000  0.0233  -6.6461   0.0000   0.0000   0.0000   0.2197
 -11.700  -1.1671   0.02398   0.01822  -0.0193  1.0000  0.0235  -6.5633   0.0000   0.0000   0.0000   0.2202
 -11.600  -1.1601   0.02373   0.01794  -0.0189  1.0000  0.0236  -6.4798   0.0000   0.0000   0.0000   0.2206
 -11.500  -1.1528   0.02349   0.01767  -0.0184  1.0000  0.0237  -6.3960   0.0000   0.0000   0.0000   0.2211
 -11.400  -1.1481   0.02297   0.01711  -0.0176  1.0000  0.0239  -6.3334   0.0000   0.0000   0.0000   0.2218
 -11.300  -1.1472   0.02206   0.01613  -0.0163  1.0000  0.0245  -6.3017   0.0000   0.0000   0.0000   0.2230
 -11.200  -1.1437   0.02144   0.01547  -0.0154  1.0000  0.0249  -6.2473   0.0000   0.0000   0.0000   0.2240
 -11.100  -1.1384   0.02098   0.01498  -0.0147  1.0000  0.0254  -6.1800   0.0000   0.0000   0.0000   0.2247
 -11.000  -1.1322   0.02060   0.01460  -0.0141  1.0000  0.0258  -6.1046   0.0000   0.0000   0.0000   0.2253
 -10.900  -1.1252   0.02030   0.01428  -0.0135  1.0000  0.0261  -6.0241   0.0000   0.0000   0.0000   0.2258
 -10.800  -1.1177   0.02003   0.01399  -0.0131  1.0000  0.0265  -5.9408   0.0000   0.0000   0.0000   0.2263
 -10.700  -1.1099   0.01978   0.01373  -0.0126  1.0000  0.0269  -5.8561   0.0000   0.0000   0.0000   0.2267
 -10.600  -1.1020   0.01954   0.01348  -0.0122  1.0000  0.0273  -5.7713   0.0000   0.0000   0.0000   0.2272
 -10.500  -1.0940   0.01931   0.01323  -0.0118  1.0000  0.0277  -5.6868   0.0000   0.0000   0.0000   0.2276
 -10.400  -1.0859   0.01908   0.01298  -0.0113  1.0000  0.0281  -5.6027   0.0000   0.0000   0.0000   0.2281
 -10.300  -1.0778   0.01885   0.01274  -0.0109  1.0000  0.0285  -5.5190   0.0000   0.0000   0.0000   0.2285
 -10.200  -1.0696   0.01863   0.01248  -0.0105  1.0000  0.0289  -5.4356   0.0000   0.0000   0.0000   0.2289
 -10.100  -1.0613   0.01842   0.01224  -0.0101  1.0000  0.0293  -5.3524   0.0000   0.0000   0.0000   0.2294
 -10.000  -1.0530   0.01821   0.01202  -0.0097  1.0000  0.0297  -5.2691   0.0000   0.0000   0.0000   0.2298
  -9.900  -1.0445   0.01802   0.01180  -0.0093  1.0000  0.0301  -5.1855   0.0000   0.0000   0.0000   0.2303
  -9.800  -1.0358   0.01784   0.01160  -0.0089  1.0000  0.0305  -5.1014   0.0000   0.0000   0.0000   0.2307
  -9.700  -1.0270   0.01768   0.01141  -0.0086  1.0000  0.0308  -5.0231   0.0000   0.0000   0.0000   0.2311
  -9.600  -1.0180   0.01753   0.01125  -0.0082  1.0000  0.0310  -4.9465   0.0000   0.0000   0.0000   0.2315
  -9.500  -1.0116   0.01713   0.01081  -0.0075  1.0000  0.0316  -4.8892   0.0000   0.0000   0.0000   0.2322
  -9.400  -1.0064   0.01663   0.01028  -0.0066  1.0000  0.0327  -4.8394   0.0000   0.0000   0.0000   0.2332
  -9.300  -0.9993   0.01631   0.00996  -0.0060  1.0000  0.0336  -4.7754   0.0000   0.0000   0.0000   0.2339
  -9.200  -0.9914   0.01608   0.00973  -0.0055  1.0000  0.0344  -4.7045   0.0000   0.0000   0.0000   0.2345
  -9.100  -0.9830   0.01589   0.00954  -0.0050  1.0000  0.0352  -4.6312   0.0000   0.0000   0.0000   0.2350
  -9.000  -0.9745   0.01573   0.00938  -0.0046  1.0000  0.0359  -4.5574   0.0000   0.0000   0.0000   0.2355
  -8.900  -0.9659   0.01557   0.00922  -0.0042  1.0000  0.0367  -4.4840   0.0000   0.0000   0.0000   0.2360
  -8.800  -0.9574   0.01542   0.00905  -0.0037  1.0000  0.0374  -4.4116   0.0000   0.0000   0.0000   0.2366
  -8.700  -0.9489   0.01527   0.00888  -0.0033  1.0000  0.0381  -4.3401   0.0000   0.0000   0.0000   0.2372
  -8.600  -0.9404   0.01512   0.00872  -0.0028  1.0000  0.0388  -4.2691   0.0000   0.0000   0.0000   0.2377
  -8.500  -0.9317   0.01499   0.00857  -0.0023  1.0000  0.0394  -4.1980   0.0000   0.0000   0.0000   0.2383
  -8.400  -0.9230   0.01487   0.00844  -0.0019  1.0000  0.0398  -4.1264   0.0000   0.0000   0.0000   0.2389
  -8.300  -0.9141   0.01477   0.00832  -0.0015  1.0000  0.0402  -4.0541   0.0000   0.0000   0.0000   0.2394
  -8.200  -0.9082   0.01438   0.00790  -0.0006  1.0000  0.0418  -4.0027   0.0000   0.0000   0.0000   0.2405
  -8.100  -0.9012   0.01409   0.00760   0.0002  1.0000  0.0435  -3.9436   0.0000   0.0000   0.0000   0.2414
  -8.000  -0.8934   0.01388   0.00741   0.0007  1.0000  0.0449  -3.8781   0.0000   0.0000   0.0000   0.2422
  -7.900  -0.8852   0.01371   0.00725   0.0013  1.0000  0.0461  -3.8108   0.0000   0.0000   0.0000   0.2429
  -7.800  -0.8769   0.01357   0.00711   0.0018  1.0000  0.0473  -3.7429   0.0000   0.0000   0.0000   0.2436
  -7.700  -0.8684   0.01344   0.00698   0.0023  1.0000  0.0485  -3.6748   0.0000   0.0000   0.0000   0.2443
  -7.600  -0.8599   0.01332   0.00685   0.0028  1.0000  0.0496  -3.6067   0.0000   0.0000   0.0000   0.2450
  -7.500  -0.8512   0.01322   0.00674   0.0032  1.0000  0.0507  -3.5384   0.0000   0.0000   0.0000   0.2457
  -7.400  -0.8424   0.01314   0.00664   0.0037  1.0000  0.0514  -3.4694   0.0000   0.0000   0.0000   0.2463
  -7.300  -0.8344   0.01297   0.00645   0.0043  1.0000  0.0530  -3.4070   0.0000   0.0000   0.0000   0.2472
  -7.200  -0.8273   0.01271   0.00620   0.0050  1.0000  0.0562  -3.3495   0.0000   0.0000   0.0000   0.2482
  -7.100  -0.8193   0.01253   0.00605   0.0056  1.0000  0.0586  -3.2864   0.0000   0.0000   0.0000   0.2491
  -7.000  -0.8111   0.01239   0.00593   0.0061  1.0000  0.0608  -3.2221   0.0000   0.0000   0.0000   0.2499
  -6.900  -0.8027   0.01227   0.00581   0.0066  1.0000  0.0627  -3.1575   0.0000   0.0000   0.0000   0.2507
  -6.800  -0.7941   0.01217   0.00571   0.0071  1.0000  0.0644  -3.0957   0.0000   0.0000   0.0000   0.2515
  -6.700  -0.7854   0.01209   0.00561   0.0075  1.0000  0.0657  -3.0372   0.0000   0.0000   0.0000   0.2523
  -6.600  -0.7771   0.01195   0.00547   0.0081  1.0000  0.0682  -2.9825   0.0000   0.0000   0.0000   0.2532
  -6.500  -0.7694   0.01175   0.00530   0.0087  1.0000  0.0728  -2.9301   0.0000   0.0000   0.0000   0.2542
  -6.400  -0.7612   0.01160   0.00518   0.0092  1.0000  0.0763  -2.8749   0.0000   0.0000   0.0000   0.2551
  -6.300  -0.7528   0.01148   0.00508   0.0097  1.0000  0.0794  -2.8189   0.0000   0.0000   0.0000   0.2559
  -6.200  -0.7441   0.01139   0.00499   0.0102  1.0000  0.0821  -2.7624   0.0000   0.0000   0.0000   0.2568
  -6.100  -0.7353   0.01131   0.00490   0.0106  1.0000  0.0844  -2.7060   0.0000   0.0000   0.0000   0.2576
  -6.000  -0.7273   0.01113   0.00477   0.0111  1.0000  0.0912  -2.6534   0.0000   0.0000   0.0000   0.2586
  -5.900  -0.7190   0.01099   0.00466   0.0116  1.0000  0.0965  -2.5991   0.0000   0.0000   0.0000   0.2596
  -5.800  -0.7103   0.01089   0.00457   0.0121  1.0000  0.1010  -2.5441   0.0000   0.0000   0.0000   0.2605
  -5.700  -0.7015   0.01081   0.00450   0.0125  1.0000  0.1046  -2.4889   0.0000   0.0000   0.0000   0.2613
  -5.600  -0.6907   0.01064   0.00438   0.0124  0.9997  0.1135  -2.4295   0.0000   0.0000   0.0000   0.2616
  -5.500  -0.6764   0.01049   0.00428   0.0117  0.9988  0.1213  -2.3606   0.0000   0.0000   0.0000   0.2610
  -5.400  -0.6620   0.01038   0.00419   0.0109  0.9979  0.1279  -2.2919   0.0000   0.0000   0.0000   0.2603
  -5.300  -0.6480   0.01020   0.00408   0.0102  0.9968  0.1388  -2.2248   0.0000   0.0000   0.0000   0.2596
  -5.200  -0.6335   0.01008   0.00399   0.0094  0.9957  0.1475  -2.1570   0.0000   0.0000   0.0000   0.2587
  -5.100  -0.6191   0.00992   0.00389   0.0086  0.9946  0.1592  -2.0967   0.0000   0.0000   0.0000   0.2579
  -5.000  -0.6046   0.00978   0.00381   0.0078  0.9936  0.1703  -2.0368   0.0000   0.0000   0.0000   0.2569
  -4.900  -0.5900   0.00963   0.00372   0.0070  0.9926  0.1824  -1.9774   0.0000   0.0000   0.0000   0.2559
  -4.800  -0.5752   0.00950   0.00363   0.0061  0.9916  0.1945  -1.9177   0.0000   0.0000   0.0000   0.2547
  -4.700  -0.5602   0.00936   0.00355   0.0052  0.9908  0.2065  -1.8583   0.0000   0.0000   0.0000   0.2534
  -4.600  -0.5451   0.00923   0.00348   0.0043  0.9900  0.2193  -1.7994   0.0000   0.0000   0.0000   0.2521
  -4.500  -0.5314   0.00909   0.00340   0.0036  0.9888  0.2322  -1.7437   0.0000   0.0000   0.0000   0.2511
  -4.400  -0.5187   0.00896   0.00332   0.0033  0.9870  0.2453  -1.6909   0.0000   0.0000   0.0000   0.2506
  -4.300  -0.5054   0.00882   0.00325   0.0028  0.9851  0.2585  -1.6375   0.0000   0.0000   0.0000   0.2499
  -4.200  -0.4918   0.00870   0.00318   0.0022  0.9834  0.2717  -1.5838   0.0000   0.0000   0.0000   0.2489
  -4.100  -0.4779   0.00857   0.00311   0.0015  0.9817  0.2845  -1.5354   0.0000   0.0000   0.0000   0.2477
  -4.000  -0.4635   0.00845   0.00304   0.0008  0.9801  0.2979  -1.4865   0.0000   0.0000   0.0000   0.2463
  -3.900  -0.4490   0.00832   0.00297   0.0000  0.9785  0.3122  -1.4379   0.0000   0.0000   0.0000   0.2447
  -3.800  -0.4341   0.00821   0.00290  -0.0008  0.9772  0.3260  -1.3888   0.0000   0.0000   0.0000   0.2428
  -3.700  -0.4193   0.00808   0.00284  -0.0016  0.9759  0.3406  -1.3405   0.0000   0.0000   0.0000   0.2408
  -3.600  -0.4040   0.00798   0.00278  -0.0025  0.9747  0.3532  -1.2915   0.0000   0.0000   0.0000   0.2384
  -3.500  -0.3891   0.00785   0.00272  -0.0034  0.9734  0.3678  -1.2440   0.0000   0.0000   0.0000   0.2360
  -3.300  -0.3595   0.00763   0.00261  -0.0050  0.9706  0.3958  -1.1600   0.0000   0.0000   0.0000   0.2309
  -3.100  -0.3365   0.00744   0.00251  -0.0051  0.9643  0.4195  -1.0878   0.0000   0.0000   0.0000   0.2298
  -3.000  -0.3246   0.00736   0.00246  -0.0052  0.9607  0.4316  -1.0514   0.0000   0.0000   0.0000   0.2289
  -2.900  -0.3126   0.00724   0.00241  -0.0053  0.9573  0.4444  -1.0166   0.0000   0.0000   0.0000   0.2278
  -2.800  -0.3001   0.00716   0.00235  -0.0056  0.9541  0.4570  -0.9837   0.0000   0.0000   0.0000   0.2264
  -2.700  -0.2872   0.00706   0.00230  -0.0059  0.9511  0.4688  -0.9506   0.0000   0.0000   0.0000   0.2245
  -2.600  -0.2741   0.00697   0.00225  -0.0062  0.9482  0.4817  -0.9175   0.0000   0.0000   0.0000   0.2222
  -2.500  -0.2625   0.00689   0.00221  -0.0062  0.9445  0.4933  -0.8866   0.0000   0.0000   0.0000   0.2212
  -2.400  -0.2529   0.00681   0.00218  -0.0058  0.9393  0.5053  -0.8600   0.0000   0.0000   0.0000   0.2219
  -2.300  -0.2422   0.00675   0.00214  -0.0056  0.9341  0.5157  -0.8339   0.0000   0.0000   0.0000   0.2217
  -2.200  -0.2313   0.00666   0.00209  -0.0055  0.9292  0.5278  -0.8076   0.0000   0.0000   0.0000   0.2213
  -2.100  -0.2198   0.00660   0.00205  -0.0055  0.9246  0.5393  -0.7808   0.0000   0.0000   0.0000   0.2202
  -2.000  -0.2087   0.00652   0.00201  -0.0053  0.9199  0.5510  -0.7548   0.0000   0.0000   0.0000   0.2195
  -1.900  -0.1986   0.00646   0.00199  -0.0050  0.9141  0.5626  -0.7328   0.0000   0.0000   0.0000   0.2198
  -1.800  -0.1882   0.00640   0.00195  -0.0048  0.9078  0.5729  -0.7106   0.0000   0.0000   0.0000   0.2198
  -1.700  -0.1778   0.00633   0.00192  -0.0045  0.9016  0.5847  -0.6884   0.0000   0.0000   0.0000   0.2199
  -1.500  -0.1566   0.00622   0.00185  -0.0040  0.8895  0.6069  -0.6465   0.0000   0.0000   0.0000   0.2196
  -1.400  -0.1462   0.00618   0.00183  -0.0038  0.8825  0.6181  -0.6272   0.0000   0.0000   0.0000   0.2194
  -1.300  -0.1357   0.00613   0.00180  -0.0035  0.8752  0.6284  -0.6080   0.0000   0.0000   0.0000   0.2195
  -1.200  -0.1254   0.00609   0.00177  -0.0032  0.8681  0.6399  -0.5891   0.0000   0.0000   0.0000   0.2198
  -1.000  -0.1045   0.00601   0.00174  -0.0027  0.8529  0.6614  -0.5555   0.0000   0.0000   0.0000   0.2196
  -0.900  -0.0940   0.00599   0.00172  -0.0024  0.8448  0.6722  -0.5388   0.0000   0.0000   0.0000   0.2196
  -0.800  -0.0835   0.00596   0.00170  -0.0021  0.8371  0.6823  -0.5227   0.0000   0.0000   0.0000   0.2197
  -0.700  -0.0731   0.00592   0.00169  -0.0019  0.8286  0.6934  -0.5081   0.0000   0.0000   0.0000   0.2195
  -0.600  -0.0625   0.00592   0.00167  -0.0016  0.8195  0.7036  -0.4935   0.0000   0.0000   0.0000   0.2190
  -0.500  -0.0523   0.00589   0.00166  -0.0013  0.8112  0.7140  -0.4792   0.0000   0.0000   0.0000   0.2205
  -0.400  -0.0417   0.00587   0.00166  -0.0011  0.8023  0.7246  -0.4652   0.0000   0.0000   0.0000   0.2192
  -0.300  -0.0312   0.00586   0.00164  -0.0008  0.7927  0.7343  -0.4524   0.0000   0.0000   0.0000   0.2188
  -0.200  -0.0210   0.00585   0.00164  -0.0005  0.7837  0.7447  -0.4399   0.0000   0.0000   0.0000   0.2219
  -0.100  -0.0103   0.00585   0.00164  -0.0003  0.7741  0.7549  -0.4270   0.0000   0.0000   0.0000   0.2166
   0.000  -0.0000   0.00585   0.00163   0.0000  0.7641  0.7641  -0.4148   0.0000   0.0000   0.0000   0.5955
   0.100   0.0103   0.00585   0.00164   0.0003  0.7549  0.7741  -0.4270   0.0000   0.0000   0.0000   0.2166
   0.200   0.0210   0.00585   0.00164   0.0005  0.7447  0.7837  -0.4399   0.0000   0.0000   0.0000   0.2219
   0.300   0.0312   0.00586   0.00164   0.0008  0.7343  0.7927  -0.4524   0.0000   0.0000   0.0000   0.2188
   0.400   0.0417   0.00587   0.00166   0.0011  0.7246  0.8023  -0.4652   0.0000   0.0000   0.0000   0.2192
   0.500   0.0523   0.00589   0.00166   0.0013  0.7140  0.8112  -0.4792   0.0000   0.0000   0.0000   0.2205
   0.600   0.0625   0.00592   0.00167   0.0016  0.7036  0.8195  -0.4935   0.0000   0.0000   0.0000   0.2190
   0.700   0.0731   0.00592   0.00169   0.0019  0.6934  0.8286  -0.5081   0.0000   0.0000   0.0000   0.2195
   0.800   0.0835   0.00596   0.00170   0.0021  0.6823  0.8371  -0.5227   0.0000   0.0000   0.0000   0.2197
   0.900   0.0940   0.00599   0.00172   0.0024  0.6722  0.8448  -0.5388   0.0000   0.0000   0.0000   0.2196
   1.000   0.1045   0.00601   0.00174   0.0027  0.6614  0.8529  -0.5555   0.0000   0.0000   0.0000   0.2196
   1.200   0.1254   0.00609   0.00177   0.0032  0.6399  0.8681  -0.5891   0.0000   0.0000   0.0000   0.2198
   1.300   0.1357   0.00613   0.00180   0.0035  0.6284  0.8752  -0.6080   0.0000   0.0000   0.0000   0.2195
   1.400   0.1462   0.00618   0.00183   0.0038  0.6181  0.8825  -0.6272   0.0000   0.0000   0.0000   0.2194
   1.500   0.1566   0.00622   0.00185   0.0040  0.6069  0.8895  -0.6465   0.0000   0.0000   0.0000   0.2196
   1.700   0.1778   0.00633   0.00192   0.0045  0.5847  0.9016  -0.6884   0.0000   0.0000   0.0000   0.2199
   1.800   0.1882   0.00640   0.00195   0.0048  0.5729  0.9079  -0.7106   0.0000   0.0000   0.0000   0.2198
   1.900   0.1986   0.00646   0.00199   0.0050  0.5626  0.9141  -0.7328   0.0000   0.0000   0.0000   0.2198
   2.000   0.2087   0.00652   0.00201   0.0053  0.5510  0.9199  -0.7548   0.0000   0.0000   0.0000   0.2195
   2.100   0.2198   0.00660   0.00205   0.0055  0.5393  0.9246  -0.7808   0.0000   0.0000   0.0000   0.2202
   2.200   0.2313   0.00666   0.00209   0.0055  0.5278  0.9292  -0.8076   0.0000   0.0000   0.0000   0.2213
   2.300   0.2422   0.00675   0.00214   0.0056  0.5157  0.9341  -0.8339   0.0000   0.0000   0.0000   0.2217
   2.400   0.2529   0.00681   0.00218   0.0058  0.5053  0.9393  -0.8600   0.0000   0.0000   0.0000   0.2219
   2.500   0.2625   0.00689   0.00221   0.0062  0.4933  0.9445  -0.8866   0.0000   0.0000   0.0000   0.2212
   2.600   0.2741   0.00697   0.00225   0.0062  0.4817  0.9482  -0.9175   0.0000   0.0000   0.0000   0.2222
   2.700   0.2872   0.00706   0.00230   0.0059  0.4688  0.9511  -0.9506   0.0000   0.0000   0.0000   0.2245
   2.800   0.3001   0.00716   0.00235   0.0056  0.4570  0.9541  -0.9837   0.0000   0.0000   0.0000   0.2264
   2.900   0.3125   0.00724   0.00241   0.0053  0.4444  0.9573  -1.0166   0.0000   0.0000   0.0000   0.2278
   3.000   0.3246   0.00736   0.00246   0.0052  0.4316  0.9607  -1.0514   0.0000   0.0000   0.0000   0.2289
   3.100   0.3365   0.00744   0.00251   0.0051  0.4195  0.9643  -1.0878   0.0000   0.0000   0.0000   0.2298
   3.300   0.3595   0.00763   0.00261   0.0050  0.3958  0.9706  -1.1600   0.0000   0.0000   0.0000   0.2309
   3.500   0.3891   0.00785   0.00272   0.0034  0.3678  0.9734  -1.2440   0.0000   0.0000   0.0000   0.2360
   3.600   0.4040   0.00798   0.00278   0.0025  0.3532  0.9747  -1.2916   0.0000   0.0000   0.0000   0.2384
   3.700   0.4193   0.00807   0.00284   0.0016  0.3406  0.9759  -1.3405   0.0000   0.0000   0.0000   0.2408
   3.800   0.4341   0.00821   0.00290   0.0008  0.3260  0.9772  -1.3888   0.0000   0.0000   0.0000   0.2428
   3.900   0.4490   0.00832   0.00297  -0.0000  0.3122  0.9786  -1.4379   0.0000   0.0000   0.0000   0.2447
   4.000   0.4635   0.00845   0.00304  -0.0008  0.2979  0.9801  -1.4865   0.0000   0.0000   0.0000   0.2463
   4.100   0.4779   0.00857   0.00311  -0.0015  0.2845  0.9817  -1.5354   0.0000   0.0000   0.0000   0.2477
   4.200   0.4918   0.00870   0.00317  -0.0022  0.2717  0.9834  -1.5838   0.0000   0.0000   0.0000   0.2489
   4.300   0.5054   0.00882   0.00324  -0.0028  0.2585  0.9852  -1.6375   0.0000   0.0000   0.0000   0.2499
   4.400   0.5186   0.00896   0.00332  -0.0032  0.2453  0.9870  -1.6909   0.0000   0.0000   0.0000   0.2506
   4.500   0.5313   0.00909   0.00340  -0.0036  0.2322  0.9888  -1.7437   0.0000   0.0000   0.0000   0.2511
   4.600   0.5452   0.00923   0.00348  -0.0043  0.2193  0.9900  -1.7995   0.0000   0.0000   0.0000   0.2521
   4.700   0.5602   0.00936   0.00355  -0.0052  0.2065  0.9908  -1.8584   0.0000   0.0000   0.0000   0.2535
   4.800   0.5752   0.00949   0.00363  -0.0061  0.1945  0.9916  -1.9178   0.0000   0.0000   0.0000   0.2547
   4.900   0.5901   0.00963   0.00372  -0.0070  0.1824  0.9926  -1.9775   0.0000   0.0000   0.0000   0.2559
   5.000   0.6047   0.00978   0.00381  -0.0078  0.1703  0.9936  -2.0369   0.0000   0.0000   0.0000   0.2569
   5.100   0.6192   0.00991   0.00389  -0.0086  0.1592  0.9947  -2.0968   0.0000   0.0000   0.0000   0.2579
   5.200   0.6335   0.01008   0.00399  -0.0094  0.1475  0.9958  -2.1571   0.0000   0.0000   0.0000   0.2587
   5.300   0.6480   0.01020   0.00408  -0.0102  0.1388  0.9969  -2.2250   0.0000   0.0000   0.0000   0.2596
   5.400   0.6621   0.01038   0.00418  -0.0109  0.1279  0.9979  -2.2920   0.0000   0.0000   0.0000   0.2603
   5.500   0.6765   0.01049   0.00428  -0.0117  0.1213  0.9988  -2.3608   0.0000   0.0000   0.0000   0.2610
   5.600   0.6907   0.01064   0.00438  -0.0124  0.1135  0.9997  -2.4297   0.0000   0.0000   0.0000   0.2616
   5.700   0.7013   0.01081   0.00450  -0.0124  0.1046  1.0000  -2.4884   0.0000   0.0000   0.0000   0.2613
   5.800   0.7101   0.01089   0.00457  -0.0120  0.1010  1.0000  -2.5436   0.0000   0.0000   0.0000   0.2604
   5.900   0.7188   0.01099   0.00465  -0.0116  0.0965  1.0000  -2.5986   0.0000   0.0000   0.0000   0.2595
   6.000   0.7271   0.01113   0.00477  -0.0111  0.0912  1.0000  -2.6529   0.0000   0.0000   0.0000   0.2586
   6.100   0.7352   0.01131   0.00490  -0.0106  0.0845  1.0000  -2.7055   0.0000   0.0000   0.0000   0.2576
   6.200   0.7439   0.01139   0.00499  -0.0101  0.0821  1.0000  -2.7619   0.0000   0.0000   0.0000   0.2568
   6.300   0.7526   0.01148   0.00508  -0.0097  0.0795  1.0000  -2.8184   0.0000   0.0000   0.0000   0.2559
   6.400   0.7611   0.01159   0.00518  -0.0092  0.0763  1.0000  -2.8744   0.0000   0.0000   0.0000   0.2550
   6.500   0.7692   0.01175   0.00530  -0.0087  0.0728  1.0000  -2.9296   0.0000   0.0000   0.0000   0.2541
   6.600   0.7770   0.01195   0.00546  -0.0081  0.0682  1.0000  -2.9821   0.0000   0.0000   0.0000   0.2531
   6.700   0.7852   0.01209   0.00561  -0.0075  0.0657  1.0000  -3.0367   0.0000   0.0000   0.0000   0.2522
   6.800   0.7939   0.01217   0.00570  -0.0071  0.0644  1.0000  -3.0952   0.0000   0.0000   0.0000   0.2515
   6.900   0.8026   0.01227   0.00581  -0.0066  0.0628  1.0000  -3.1570   0.0000   0.0000   0.0000   0.2507
   7.000   0.8110   0.01238   0.00592  -0.0061  0.0608  1.0000  -3.2216   0.0000   0.0000   0.0000   0.2499
   7.100   0.8192   0.01253   0.00605  -0.0055  0.0586  1.0000  -3.2859   0.0000   0.0000   0.0000   0.2490
   7.200   0.8271   0.01270   0.00620  -0.0050  0.0562  1.0000  -3.3490   0.0000   0.0000   0.0000   0.2482
   7.300   0.8343   0.01296   0.00644  -0.0042  0.0530  1.0000  -3.4066   0.0000   0.0000   0.0000   0.2472
   7.400   0.8422   0.01314   0.00664  -0.0036  0.0514  1.0000  -3.4690   0.0000   0.0000   0.0000   0.2463
   7.500   0.8511   0.01322   0.00674  -0.0032  0.0507  1.0000  -3.5379   0.0000   0.0000   0.0000   0.2456
   7.600   0.8597   0.01332   0.00685  -0.0027  0.0497  1.0000  -3.6063   0.0000   0.0000   0.0000   0.2450
   7.700   0.8683   0.01344   0.00697  -0.0023  0.0485  1.0000  -3.6744   0.0000   0.0000   0.0000   0.2443
   7.800   0.8768   0.01357   0.00711  -0.0018  0.0473  1.0000  -3.7425   0.0000   0.0000   0.0000   0.2436
   7.900   0.8851   0.01371   0.00725  -0.0012  0.0461  1.0000  -3.8104   0.0000   0.0000   0.0000   0.2429
   8.000   0.8933   0.01388   0.00741  -0.0007  0.0449  1.0000  -3.8778   0.0000   0.0000   0.0000   0.2422
   8.100   0.9011   0.01408   0.00760  -0.0001  0.0435  1.0000  -3.9433   0.0000   0.0000   0.0000   0.2414
   8.200   0.9081   0.01437   0.00789   0.0006  0.0418  1.0000  -4.0025   0.0000   0.0000   0.0000   0.2405
   8.300   0.9140   0.01477   0.00832   0.0015  0.0402  1.0000  -4.0539   0.0000   0.0000   0.0000   0.2394
   8.400   0.9229   0.01487   0.00843   0.0019  0.0398  1.0000  -4.1262   0.0000   0.0000   0.0000   0.2389
   8.500   0.9317   0.01499   0.00857   0.0024  0.0394  1.0000  -4.1978   0.0000   0.0000   0.0000   0.2383
   8.600   0.9403   0.01512   0.00872   0.0028  0.0388  1.0000  -4.2690   0.0000   0.0000   0.0000   0.2377
   8.700   0.9489   0.01527   0.00888   0.0033  0.0381  1.0000  -4.3400   0.0000   0.0000   0.0000   0.2371
   8.800   0.9574   0.01542   0.00905   0.0037  0.0374  1.0000  -4.4115   0.0000   0.0000   0.0000   0.2366
   8.900   0.9659   0.01557   0.00922   0.0042  0.0367  1.0000  -4.4839   0.0000   0.0000   0.0000   0.2360
   9.000   0.9745   0.01573   0.00938   0.0046  0.0359  1.0000  -4.5574   0.0000   0.0000   0.0000   0.2355
   9.100   0.9831   0.01589   0.00954   0.0050  0.0352  1.0000  -4.6313   0.0000   0.0000   0.0000   0.2350
   9.200   0.9914   0.01608   0.00973   0.0055  0.0344  1.0000  -4.7046   0.0000   0.0000   0.0000   0.2345
   9.300   0.9994   0.01631   0.00995   0.0060  0.0336  1.0000  -4.7756   0.0000   0.0000   0.0000   0.2339
   9.400   1.0065   0.01663   0.01028   0.0066  0.0327  1.0000  -4.8396   0.0000   0.0000   0.0000   0.2332
   9.500   1.0117   0.01713   0.01081   0.0075  0.0316  1.0000  -4.8894   0.0000   0.0000   0.0000   0.2323
   9.600   1.0181   0.01753   0.01125   0.0082  0.0310  1.0000  -4.9469   0.0000   0.0000   0.0000   0.2315
   9.700   1.0271   0.01767   0.01141   0.0085  0.0307  1.0000  -5.0236   0.0000   0.0000   0.0000   0.2311
   9.800   1.0360   0.01784   0.01159   0.0089  0.0305  1.0000  -5.1020   0.0000   0.0000   0.0000   0.2307
   9.900   1.0446   0.01801   0.01180   0.0093  0.0301  1.0000  -5.1862   0.0000   0.0000   0.0000   0.2303
  10.000   1.0531   0.01821   0.01201   0.0097  0.0297  1.0000  -5.2699   0.0000   0.0000   0.0000   0.2299
  10.100   1.0615   0.01842   0.01224   0.0101  0.0293  1.0000  -5.3532   0.0000   0.0000   0.0000   0.2294
  10.200   1.0698   0.01863   0.01248   0.0105  0.0289  1.0000  -5.4365   0.0000   0.0000   0.0000   0.2290
  10.300   1.0780   0.01885   0.01274   0.0109  0.0285  1.0000  -5.5200   0.0000   0.0000   0.0000   0.2286
  10.400   1.0862   0.01908   0.01298   0.0113  0.0281  1.0000  -5.6038   0.0000   0.0000   0.0000   0.2281
  10.500   1.0943   0.01931   0.01323   0.0117  0.0277  1.0000  -5.6880   0.0000   0.0000   0.0000   0.2277
  10.600   1.1023   0.01954   0.01348   0.0121  0.0273  1.0000  -5.7726   0.0000   0.0000   0.0000   0.2272
  10.700   1.1102   0.01978   0.01373   0.0126  0.0269  1.0000  -5.8575   0.0000   0.0000   0.0000   0.2268
  10.800   1.1180   0.02003   0.01399   0.0130  0.0265  1.0000  -5.9423   0.0000   0.0000   0.0000   0.2264
  10.900   1.1255   0.02030   0.01428   0.0135  0.0261  1.0000  -6.0256   0.0000   0.0000   0.0000   0.2259
  11.000   1.1325   0.02061   0.01460   0.0140  0.0258  1.0000  -6.1061   0.0000   0.0000   0.0000   0.2254
  11.100   1.1388   0.02098   0.01499   0.0146  0.0254  1.0000  -6.1815   0.0000   0.0000   0.0000   0.2247
  11.200   1.1440   0.02145   0.01548   0.0153  0.0249  1.0000  -6.2488   0.0000   0.0000   0.0000   0.2240
  11.300   1.1476   0.02208   0.01614   0.0163  0.0244  1.0000  -6.3030   0.0000   0.0000   0.0000   0.2231
  11.400   1.1484   0.02299   0.01713   0.0175  0.0239  1.0000  -6.3341   0.0000   0.0000   0.0000   0.2219
  11.500   1.1534   0.02349   0.01767   0.0183  0.0237  1.0000  -6.3986   0.0000   0.0000   0.0000   0.2212
  11.600   1.1606   0.02373   0.01794   0.0187  0.0236  1.0000  -6.4826   0.0000   0.0000   0.0000   0.2207
  11.700   1.1678   0.02398   0.01822   0.0192  0.0235  1.0000  -6.5662   0.0000   0.0000   0.0000   0.2203
  11.800   1.1747   0.02423   0.01851   0.0197  0.0233  1.0000  -6.6492   0.0000   0.0000   0.0000   0.2198
  11.900   1.1813   0.02451   0.01881   0.0202  0.0231  1.0000  -6.7312   0.0000   0.0000   0.0000   0.2193
  12.000   1.1874   0.02478   0.01912   0.0209  0.0229  1.0000  -6.8103   0.0000   0.0000   0.0000   0.2187
  12.100   1.1928   0.02507   0.01946   0.0216  0.0227  1.0000  -6.8867   0.0000   0.0000   0.0000   0.2180
  12.200   1.1979   0.02538   0.01980   0.0223  0.0225  1.0000  -6.9615   0.0000   0.0000   0.0000   0.2173
  12.300   1.2028   0.02570   0.02015   0.0231  0.0222  1.0000  -7.0353   0.0000   0.0000   0.0000   0.2166
  12.400   1.2074   0.02603   0.02052   0.0238  0.0220  1.0000  -7.1083   0.0000   0.0000   0.0000   0.2159
  12.500   1.2119   0.02639   0.02090   0.0246  0.0218  1.0000  -7.1804   0.0000   0.0000   0.0000   0.2152
  12.600   1.2163   0.02675   0.02130   0.0253  0.0216  1.0000  -7.2521   0.0000   0.0000   0.0000   0.2146
  12.700   1.2205   0.02714   0.02172   0.0260  0.0213  1.0000  -7.3230   0.0000   0.0000   0.0000   0.2139
  12.800   1.2245   0.02755   0.02216   0.0267  0.0211  1.0000  -7.3921   0.0000   0.0000   0.0000   0.2132
  12.900   1.2282   0.02799   0.02263   0.0274  0.0210  1.0000  -7.4601   0.0000   0.0000   0.0000   0.2126
  13.000   1.2318   0.02844   0.02312   0.0280  0.0208  1.0000  -7.5272   0.0000   0.0000   0.0000   0.2120
  13.100   1.2353   0.02892   0.02363   0.0286  0.0206  1.0000  -7.5938   0.0000   0.0000   0.0000   0.2114
  13.200   1.2386   0.02941   0.02415   0.0292  0.0204  1.0000  -7.6600   0.0000   0.0000   0.0000   0.2108
  13.300   1.2417   0.02992   0.02469   0.0298  0.0203  1.0000  -7.7249   0.0000   0.0000   0.0000   0.2102
  13.400   1.2447   0.03046   0.02526   0.0303  0.0201  1.0000  -7.7894   0.0000   0.0000   0.0000   0.2097
  13.500   1.2475   0.03103   0.02586   0.0308  0.0200  1.0000  -7.8526   0.0000   0.0000   0.0000   0.2092
  13.600   1.2501   0.03163   0.02650   0.0312  0.0198  1.0000  -7.9144   0.0000   0.0000   0.0000   0.2087
  13.700   1.2524   0.03228   0.02717   0.0316  0.0197  1.0000  -7.9743   0.0000   0.0000   0.0000   0.2082
  13.800   1.2542   0.03297   0.02790   0.0320  0.0195  1.0000  -8.0307   0.0000   0.0000   0.0000   0.2078
  13.900   1.2556   0.03373   0.02869   0.0323  0.0194  1.0000  -8.0839   0.0000   0.0000   0.0000   0.2073
  14.000   1.2565   0.03455   0.02955   0.0326  0.0192  1.0000  -8.1326   0.0000   0.0000   0.0000   0.2069
  14.100   1.2569   0.03547   0.03051   0.0328  0.0191  1.0000  -8.1763   0.0000   0.0000   0.0000   0.2066
  14.200   1.2565   0.03649   0.03156   0.0330  0.0189  1.0000  -8.2139   0.0000   0.0000   0.0000   0.2062
  14.300   1.2553   0.03762   0.03275   0.0331  0.0188  1.0000  -8.2439   0.0000   0.0000   0.0000   0.2059
  14.400   1.2532   0.03888   0.03406   0.0332  0.0187  1.0000  -8.2654   0.0000   0.0000   0.0000   0.2056
  14.500   1.2500   0.04028   0.03552   0.0332  0.0185  1.0000  -8.2774   0.0000   0.0000   0.0000   0.2053
  14.600   1.2457   0.04187   0.03718   0.0331  0.0184  1.0000  -8.2787   0.0000   0.0000   0.0000   0.2051
  14.700   1.2402   0.04364   0.03903   0.0329  0.0182  1.0000  -8.2686   0.0000   0.0000   0.0000   0.2049
  14.800   1.2335   0.04562   0.04109   0.0326  0.0181  1.0000  -8.2462   0.0000   0.0000   0.0000   0.2048
  14.900   1.2255   0.04782   0.04339   0.0321  0.0180  1.0000  -8.2115   0.0000   0.0000   0.0000   0.2048
  15.000   1.2180   0.05000   0.04565   0.0315  0.0179  1.0000  -8.1811   0.0000   0.0000   0.0000   0.2049


