xflr5 v6.61

 Calculated polar for: NACA 4412

 1 1 Reynolds number fixed          Mach number fixed         

 xtrf =   1.000 (top)        1.000 (bottom)
 Mach =   0.000     Re =     1.500 e 6     Ncrit =   9.000

  alpha     CL        CD       CDp       Cm    Top Xtr Bot Xtr   Cpmin    Chinge    XCp    
 ------- -------- --------- --------- -------- ------- ------- -------- --------- ---------
 -15.000  -1.0331   0.04038   0.03772  -0.0908  1.0000  0.0120  -11.9674   0.0000   0.0000   0.0000   0.1430
 -14.900  -1.0683   0.03336   0.03050  -0.0980  1.0000  0.0119  -12.3482   0.0000   0.0000   0.0000   0.1397
 -14.800  -1.0819   0.03237   0.02946  -0.0960  1.0000  0.0119  -12.4025   0.0000   0.0000   0.0000   0.1431
 -14.700  -1.0882   0.03156   0.02861  -0.0946  1.0000  0.0119  -12.3972   0.0000   0.0000   0.0000   0.1451
 -14.600  -1.0932   0.03088   0.02789  -0.0931  1.0000  0.0120  -12.3786   0.0000   0.0000   0.0000   0.1471
 -14.500  -1.0969   0.03029   0.02726  -0.0916  1.0000  0.0120  -12.3482   0.0000   0.0000   0.0000   0.1490
 -14.400  -1.0984   0.02929   0.02620  -0.0911  0.9997  0.0120  -12.3159   0.0000   0.0000   0.0000   0.1497
 -14.300  -1.0941   0.02768   0.02448  -0.0925  0.9988  0.0121  -12.2631   0.0000   0.0000   0.0000   0.1483
 -14.200  -1.0870   0.02659   0.02332  -0.0935  0.9981  0.0123  -12.1711   0.0000   0.0000   0.0000   0.1470
 -14.100  -1.0784   0.02576   0.02244  -0.0943  0.9975  0.0124  -12.0597   0.0000   0.0000   0.0000   0.1457
 -14.000  -1.0689   0.02508   0.02171  -0.0950  0.9969  0.0125  -11.9376   0.0000   0.0000   0.0000   0.1444
 -13.900  -1.0588   0.02448   0.02108  -0.0957  0.9964  0.0125  -11.8087   0.0000   0.0000   0.0000   0.1430
 -13.800  -1.0482   0.02395   0.02052  -0.0964  0.9960  0.0126  -11.6754   0.0000   0.0000   0.0000   0.1416
 -13.700  -1.0374   0.02347   0.02000  -0.0970  0.9957  0.0127  -11.5392   0.0000   0.0000   0.0000   0.1402
 -13.600  -1.0263   0.02302   0.01951  -0.0976  0.9954  0.0128  -11.4010   0.0000   0.0000   0.0000   0.1387
 -13.500  -1.0157   0.02259   0.01906  -0.0981  0.9949  0.0129  -11.2662   0.0000   0.0000   0.0000   0.1373
 -13.400  -1.0055   0.02219   0.01862  -0.0984  0.9941  0.0129  -11.1344   0.0000   0.0000   0.0000   0.1361
 -13.300  -0.9949   0.02180   0.01820  -0.0988  0.9933  0.0130  -11.0007   0.0000   0.0000   0.0000   0.1348
 -13.200  -0.9840   0.02142   0.01779  -0.0992  0.9927  0.0131  -10.8658   0.0000   0.0000   0.0000   0.1334
 -13.100  -0.9730   0.02105   0.01739  -0.0997  0.9920  0.0132  -10.7302   0.0000   0.0000   0.0000   0.1319
 -13.000  -0.9617   0.02069   0.01699  -0.1001  0.9914  0.0133  -10.5942   0.0000   0.0000   0.0000   0.1303
 -12.900  -0.9503   0.02033   0.01660  -0.1006  0.9909  0.0134  -10.4578   0.0000   0.0000   0.0000   0.1287
 -12.800  -0.9387   0.01998   0.01622  -0.1011  0.9904  0.0135  -10.3211   0.0000   0.0000   0.0000   0.1269
 -12.700  -0.9269   0.01964   0.01584  -0.1016  0.9900  0.0136  -10.1842   0.0000   0.0000   0.0000   0.1251
 -12.600  -0.9150   0.01932   0.01548  -0.1022  0.9895  0.0137  -10.0469   0.0000   0.0000   0.0000   0.1232
 -12.500  -0.9029   0.01900   0.01513  -0.1027  0.9892  0.0138  -9.9093   0.0000   0.0000   0.0000   0.1212
 -12.400  -0.8907   0.01870   0.01479  -0.1032  0.9888  0.0139  -9.7711   0.0000   0.0000   0.0000   0.1191
 -12.300  -0.8783   0.01841   0.01447  -0.1038  0.9885  0.0140  -9.6323   0.0000   0.0000   0.0000   0.1169
 -12.200  -0.8658   0.01814   0.01417  -0.1043  0.9882  0.0141  -9.4932   0.0000   0.0000   0.0000   0.1147
 -12.100  -0.8532   0.01789   0.01388  -0.1049  0.9880  0.0141  -9.3601   0.0000   0.0000   0.0000   0.1123
 -12.000  -0.8410   0.01751   0.01346  -0.1055  0.9877  0.0142  -9.2372   0.0000   0.0000   0.0000   0.1099
 -11.900  -0.8299   0.01692   0.01282  -0.1061  0.9873  0.0145  -9.1289   0.0000   0.0000   0.0000   0.1076
 -11.800  -0.8197   0.01655   0.01242  -0.1062  0.9861  0.0146  -9.0169   0.0000   0.0000   0.0000   0.1059
 -11.700  -0.8095   0.01625   0.01210  -0.1063  0.9848  0.0148  -8.9017   0.0000   0.0000   0.0000   0.1043
 -11.600  -0.7985   0.01599   0.01182  -0.1065  0.9837  0.0149  -8.7806   0.0000   0.0000   0.0000   0.1023
 -11.500  -0.7871   0.01576   0.01157  -0.1068  0.9827  0.0150  -8.6567   0.0000   0.0000   0.0000   0.1001
 -11.400  -0.7754   0.01554   0.01134  -0.1071  0.9818  0.0152  -8.5310   0.0000   0.0000   0.0000   0.0977
 -11.300  -0.7636   0.01534   0.01112  -0.1074  0.9809  0.0153  -8.4052   0.0000   0.0000   0.0000   0.0953
 -11.200  -0.7518   0.01514   0.01091  -0.1076  0.9801  0.0155  -8.2804   0.0000   0.0000   0.0000   0.0927
 -11.100  -0.7400   0.01495   0.01069  -0.1079  0.9792  0.0156  -8.1570   0.0000   0.0000   0.0000   0.0902
 -11.000  -0.7284   0.01476   0.01048  -0.1081  0.9784  0.0158  -8.0353   0.0000   0.0000   0.0000   0.0876
 -10.900  -0.7173   0.01458   0.01028  -0.1082  0.9773  0.0160  -7.9176   0.0000   0.0000   0.0000   0.0852
 -10.800  -0.7078   0.01441   0.01009  -0.1080  0.9751  0.0161  -7.8094   0.0000   0.0000   0.0000   0.0836
 -10.700  -0.6976   0.01424   0.00989  -0.1079  0.9733  0.0162  -7.6979   0.0000   0.0000   0.0000   0.0816
 -10.600  -0.6870   0.01407   0.00970  -0.1078  0.9717  0.0164  -7.5857   0.0000   0.0000   0.0000   0.0793
 -10.500  -0.6764   0.01392   0.00951  -0.1078  0.9702  0.0165  -7.4734   0.0000   0.0000   0.0000   0.0770
 -10.400  -0.6656   0.01377   0.00934  -0.1078  0.9688  0.0166  -7.3604   0.0000   0.0000   0.0000   0.0745
 -10.200  -0.6466   0.01318   0.00869  -0.1074  0.9650  0.0170  -7.1621   0.0000   0.0000   0.0000   0.0704
 -10.100  -0.6370   0.01296   0.00845  -0.1072  0.9627  0.0172  -7.0597   0.0000   0.0000   0.0000   0.0683
 -10.000  -0.6271   0.01277   0.00825  -0.1071  0.9607  0.0174  -6.9538   0.0000   0.0000   0.0000   0.0659
  -9.900  -0.6168   0.01261   0.00807  -0.1069  0.9588  0.0176  -6.8462   0.0000   0.0000   0.0000   0.0633
  -9.800  -0.6063   0.01246   0.00791  -0.1068  0.9572  0.0178  -6.7376   0.0000   0.0000   0.0000   0.0605
  -9.700  -0.5959   0.01233   0.00775  -0.1067  0.9552  0.0179  -6.6304   0.0000   0.0000   0.0000   0.0577
  -9.600  -0.5858   0.01219   0.00760  -0.1065  0.9527  0.0181  -6.5252   0.0000   0.0000   0.0000   0.0549
  -9.500  -0.5756   0.01206   0.00745  -0.1064  0.9501  0.0183  -6.4206   0.0000   0.0000   0.0000   0.0520
  -9.400  -0.5653   0.01192   0.00729  -0.1062  0.9477  0.0185  -6.3163   0.0000   0.0000   0.0000   0.0490
  -9.300  -0.5549   0.01180   0.00714  -0.1061  0.9453  0.0187  -6.2121   0.0000   0.0000   0.0000   0.0458
  -9.200  -0.5444   0.01168   0.00699  -0.1059  0.9426  0.0189  -6.1086   0.0000   0.0000   0.0000   0.0424
  -9.100  -0.5340   0.01156   0.00686  -0.1058  0.9395  0.0191  -6.0056   0.0000   0.0000   0.0000   0.0389
  -9.000  -0.5235   0.01146   0.00673  -0.1056  0.9365  0.0192  -5.9071   0.0000   0.0000   0.0000   0.0352
  -8.900  -0.5133   0.01126   0.00650  -0.1055  0.9338  0.0195  -5.8163   0.0000   0.0000   0.0000   0.0315
  -8.800  -0.5032   0.01105   0.00626  -0.1053  0.9313  0.0198  -5.7255   0.0000   0.0000   0.0000   0.0276
  -8.700  -0.4926   0.01090   0.00611  -0.1053  0.9284  0.0202  -5.6300   0.0000   0.0000   0.0000   0.0233
  -8.600  -0.4819   0.01078   0.00597  -0.1052  0.9258  0.0204  -5.5332   0.0000   0.0000   0.0000   0.0187
  -8.500  -0.4711   0.01067   0.00585  -0.1051  0.9234  0.0207  -5.4364   0.0000   0.0000   0.0000   0.0138
  -8.400  -0.4603   0.01058   0.00574  -0.1051  0.9212  0.0210  -5.3403   0.0000   0.0000   0.0000   0.0087
  -8.300  -0.4494   0.01048   0.00562  -0.1050  0.9190  0.0213  -5.2450   0.0000   0.0000   0.0000   0.0032
  -8.200  -0.4384   0.01038   0.00551  -0.1050  0.9165  0.0216  -5.1506   0.0000   0.0000   0.0000  -0.0026
  -8.100  -0.4275   0.01028   0.00539  -0.1049  0.9138  0.0218  -5.0570   0.0000   0.0000   0.0000  -0.0086
  -8.000  -0.4165   0.01020   0.00528  -0.1049  0.9112  0.0221  -4.9638   0.0000   0.0000   0.0000  -0.0150
  -7.900  -0.4056   0.01012   0.00517  -0.1048  0.9088  0.0223  -4.8712   0.0000   0.0000   0.0000  -0.0217
  -7.800  -0.3951   0.00991   0.00494  -0.1047  0.9063  0.0228  -4.7861   0.0000   0.0000   0.0000  -0.0285
  -7.700  -0.3842   0.00978   0.00480  -0.1047  0.9036  0.0232  -4.6959   0.0000   0.0000   0.0000  -0.0360
  -7.600  -0.3732   0.00967   0.00469  -0.1047  0.9008  0.0236  -4.6049   0.0000   0.0000   0.0000  -0.0440
  -7.500  -0.3622   0.00958   0.00459  -0.1046  0.8981  0.0239  -4.5142   0.0000   0.0000   0.0000  -0.0525
  -7.400  -0.3512   0.00950   0.00449  -0.1046  0.8956  0.0243  -4.4242   0.0000   0.0000   0.0000  -0.0615
  -7.300  -0.3401   0.00942   0.00439  -0.1045  0.8931  0.0247  -4.3346   0.0000   0.0000   0.0000  -0.0713
  -7.200  -0.3290   0.00934   0.00430  -0.1045  0.8902  0.0250  -4.2456   0.0000   0.0000   0.0000  -0.0818
  -7.100  -0.3178   0.00928   0.00421  -0.1045  0.8872  0.0254  -4.1569   0.0000   0.0000   0.0000  -0.0931
  -7.000  -0.3069   0.00917   0.00408  -0.1045  0.8843  0.0258  -4.0718   0.0000   0.0000   0.0000  -0.1048
  -6.900  -0.2960   0.00904   0.00394  -0.1044  0.8815  0.0265  -3.9873   0.0000   0.0000   0.0000  -0.1172
  -6.800  -0.2849   0.00895   0.00384  -0.1044  0.8785  0.0270  -3.9007   0.0000   0.0000   0.0000  -0.1312
  -6.700  -0.2738   0.00887   0.00376  -0.1044  0.8753  0.0275  -3.8174   0.0000   0.0000   0.0000  -0.1463
  -6.600  -0.2626   0.00881   0.00368  -0.1043  0.8721  0.0280  -3.7371   0.0000   0.0000   0.0000  -0.1626
  -6.400  -0.2402   0.00869   0.00352  -0.1043  0.8661  0.0289  -3.5781   0.0000   0.0000   0.0000  -0.2002
  -6.300  -0.2291   0.00860   0.00341  -0.1043  0.8629  0.0295  -3.5012   0.0000   0.0000   0.0000  -0.2216
  -6.200  -0.2181   0.00849   0.00329  -0.1042  0.8596  0.0303  -3.4253   0.0000   0.0000   0.0000  -0.2448
  -6.000  -0.1958   0.00835   0.00314  -0.1042  0.8532  0.0317  -3.2708   0.0000   0.0000   0.0000  -0.3002
  -5.900  -0.1845   0.00830   0.00307  -0.1042  0.8496  0.0323  -3.1940   0.0000   0.0000   0.0000  -0.3333
  -5.800  -0.1733   0.00826   0.00300  -0.1042  0.8461  0.0329  -3.1181   0.0000   0.0000   0.0000  -0.3703
  -5.700  -0.1622   0.00819   0.00291  -0.1041  0.8428  0.0337  -3.0443   0.0000   0.0000   0.0000  -0.4121
  -5.600  -0.1510   0.00809   0.00282  -0.1041  0.8391  0.0348  -2.9707   0.0000   0.0000   0.0000  -0.4606
  -5.500  -0.1398   0.00803   0.00275  -0.1041  0.8354  0.0356  -2.8968   0.0000   0.0000   0.0000  -0.5167
  -5.400  -0.1287   0.00798   0.00268  -0.1041  0.8318  0.0365  -2.8237   0.0000   0.0000   0.0000  -0.5823
  -5.300  -0.1174   0.00794   0.00262  -0.1041  0.8284  0.0372  -2.7507   0.0000   0.0000   0.0000  -0.6620
  -5.200  -0.1060   0.00789   0.00256  -0.1041  0.8245  0.0380  -2.6805   0.0000   0.0000   0.0000  -0.7585
  -5.100  -0.0950   0.00781   0.00247  -0.1041  0.8207  0.0394  -2.6148   0.0000   0.0000   0.0000  -0.8750
  -5.000  -0.0838   0.00776   0.00241  -0.1040  0.8171  0.0406  -2.5482   0.0000   0.0000   0.0000  -1.0235
  -4.900  -0.0725   0.00771   0.00236  -0.1041  0.8131  0.0417  -2.4816   0.0000   0.0000   0.0000  -1.2219
  -4.800  -0.0612   0.00768   0.00230  -0.1040  0.8089  0.0426  -2.4157   0.0000   0.0000   0.0000  -1.4915
  -4.700  -0.0501   0.00762   0.00223  -0.1040  0.8050  0.0441  -2.3519   0.0000   0.0000   0.0000  -1.8736
  -4.600  -0.0388   0.00756   0.00217  -0.1040  0.8009  0.0456  -2.2874   0.0000   0.0000   0.0000  -2.4903
  -4.500  -0.0276   0.00751   0.00212  -0.1040  0.7966  0.0470  -2.2235   0.0000   0.0000   0.0000  -3.6034
  -4.300  -0.0051   0.00744   0.00201  -0.1040  0.7884  0.0499  -2.0988   0.0000   0.0000   0.0000  -20.5841
  -4.200   0.0061   0.00738   0.00196  -0.1040  0.7839  0.0519  -2.0405   0.0000   0.0000   0.0000  17.6305
  -4.000   0.0286   0.00733   0.00187  -0.1040  0.7753  0.0551  -1.9247   0.0000   0.0000   0.0000   3.9505
  -3.900   0.0398   0.00727   0.00182  -0.1039  0.7707  0.0577  -1.8684   0.0000   0.0000   0.0000   2.9097
  -3.800   0.0509   0.00724   0.00178  -0.1039  0.7662  0.0600  -1.8123   0.0000   0.0000   0.0000   2.3276
  -3.700   0.0623   0.00721   0.00174  -0.1039  0.7616  0.0619  -1.7559   0.0000   0.0000   0.0000   1.9472
  -3.600   0.0735   0.00717   0.00169  -0.1039  0.7568  0.0645  -1.7009   0.0000   0.0000   0.0000   1.6876
  -3.500   0.0846   0.00714   0.00165  -0.1039  0.7524  0.0675  -1.6462   0.0000   0.0000   0.0000   1.4972
  -3.400   0.0960   0.00711   0.00162  -0.1039  0.7476  0.0699  -1.5941   0.0000   0.0000   0.0000   1.3493
  -3.300   0.1071   0.00708   0.00158  -0.1039  0.7426  0.0730  -1.5439   0.0000   0.0000   0.0000   1.2340
  -3.200   0.1183   0.00705   0.00155  -0.1039  0.7380  0.0763  -1.4938   0.0000   0.0000   0.0000   1.1401
  -3.100   0.1296   0.00702   0.00152  -0.1039  0.7329  0.0791  -1.4439   0.0000   0.0000   0.0000   1.0622
  -3.000   0.1407   0.00700   0.00148  -0.1038  0.7280  0.0830  -1.3952   0.0000   0.0000   0.0000   0.9976
  -2.900   0.1520   0.00696   0.00145  -0.1038  0.7231  0.0870  -1.3462   0.0000   0.0000   0.0000   0.9415
  -2.800   0.1632   0.00695   0.00143  -0.1038  0.7180  0.0902  -1.2979   0.0000   0.0000   0.0000   0.8935
  -2.700   0.1744   0.00692   0.00140  -0.1038  0.7132  0.0949  -1.2503   0.0000   0.0000   0.0000   0.8519
  -2.600   0.1857   0.00690   0.00138  -0.1038  0.7079  0.0990  -1.2054   0.0000   0.0000   0.0000   0.8150
  -2.400   0.2081   0.00686   0.00133  -0.1038  0.6976  0.1089  -1.1179   0.0000   0.0000   0.0000   0.7536
  -2.300   0.2192   0.00684   0.00131  -0.1038  0.6922  0.1136  -1.0747   0.0000   0.0000   0.0000   0.7275
  -2.200   0.2304   0.00682   0.00129  -0.1038  0.6873  0.1194  -1.0333   0.0000   0.0000   0.0000   0.7041
  -2.100   0.2417   0.00681   0.00127  -0.1038  0.6819  0.1245  -0.9934   0.0000   0.0000   0.0000   0.6826
  -1.900   0.2640   0.00678   0.00124  -0.1038  0.6714  0.1364  -0.9150   0.0000   0.0000   0.0000   0.6454
  -1.800   0.2752   0.00676   0.00123  -0.1037  0.6658  0.1433  -0.8765   0.0000   0.0000   0.0000   0.6292
  -1.700   0.2864   0.00675   0.00121  -0.1037  0.6608  0.1495  -0.8394   0.0000   0.0000   0.0000   0.6141
  -1.600   0.2976   0.00673   0.00120  -0.1037  0.6553  0.1570  -0.8038   0.0000   0.0000   0.0000   0.6002
  -1.500   0.3086   0.00673   0.00119  -0.1037  0.6501  0.1638  -0.7687   0.0000   0.0000   0.0000   0.5873
  -1.400   0.3199   0.00671   0.00119  -0.1037  0.6448  0.1715  -0.7335   0.0000   0.0000   0.0000   0.5752
  -1.300   0.3310   0.00670   0.00118  -0.1037  0.6392  0.1795  -0.6991   0.0000   0.0000   0.0000   0.5641
  -1.200   0.3422   0.00669   0.00117  -0.1037  0.6342  0.1871  -0.6761   0.0000   0.0000   0.0000   0.5536
  -1.100   0.3534   0.00668   0.00117  -0.1037  0.6287  0.1960  -0.6840   0.0000   0.0000   0.0000   0.5438
  -1.000   0.3645   0.00668   0.00117  -0.1037  0.6236  0.2047  -0.6919   0.0000   0.0000   0.0000   0.5346
  -0.900   0.3758   0.00667   0.00116  -0.1037  0.6183  0.2134  -0.7002   0.0000   0.0000   0.0000   0.5259
  -0.800   0.3868   0.00666   0.00117  -0.1037  0.6129  0.2231  -0.7084   0.0000   0.0000   0.0000   0.5178
  -0.700   0.3980   0.00665   0.00117  -0.1037  0.6080  0.2330  -0.7166   0.0000   0.0000   0.0000   0.5101
  -0.600   0.4092   0.00664   0.00117  -0.1037  0.6027  0.2430  -0.7249   0.0000   0.0000   0.0000   0.5028
  -0.500   0.4203   0.00664   0.00117  -0.1037  0.5978  0.2536  -0.7331   0.0000   0.0000   0.0000   0.4959
  -0.400   0.4315   0.00663   0.00118  -0.1037  0.5927  0.2651  -0.7416   0.0000   0.0000   0.0000   0.4894
  -0.300   0.4426   0.00663   0.00118  -0.1037  0.5875  0.2769  -0.7501   0.0000   0.0000   0.0000   0.4832
  -0.200   0.4537   0.00662   0.00119  -0.1037  0.5829  0.2891  -0.7587   0.0000   0.0000   0.0000   0.4773
  -0.100   0.4649   0.00660   0.00120  -0.1037  0.5779  0.3023  -0.7672   0.0000   0.0000   0.0000   0.4717
   0.100   0.4872   0.00658   0.00122  -0.1037  0.5686  0.3316  -0.7846   0.0000   0.0000   0.0000   0.4612
   0.200   0.4982   0.00657   0.00123  -0.1037  0.5637  0.3483  -0.7935   0.0000   0.0000   0.0000   0.4564
   0.300   0.5092   0.00655   0.00124  -0.1037  0.5594  0.3675  -0.8023   0.0000   0.0000   0.0000   0.4517
   0.400   0.5204   0.00650   0.00125  -0.1037  0.5550  0.3911  -0.8112   0.0000   0.0000   0.0000   0.4473
   0.500   0.5313   0.00644   0.00126  -0.1037  0.5505  0.4267  -0.8201   0.0000   0.0000   0.0000   0.4431
   0.600   0.5420   0.00635   0.00129  -0.1037  0.5463  0.4775  -0.8291   0.0000   0.0000   0.0000   0.4391
   0.700   0.5529   0.00625   0.00131  -0.1037  0.5423  0.5280  -0.8382   0.0000   0.0000   0.0000   0.4352
   0.800   0.5636   0.00617   0.00134  -0.1037  0.5380  0.5745  -0.8473   0.0000   0.0000   0.0000   0.4315
   0.900   0.5743   0.00611   0.00137  -0.1036  0.5341  0.6171  -0.8563   0.0000   0.0000   0.0000   0.4278
   1.100   0.5958   0.00596   0.00142  -0.1035  0.5264  0.7008  -0.8751   0.0000   0.0000   0.0000   0.4209
   1.200   0.6061   0.00589   0.00146  -0.1033  0.5226  0.7435  -0.8844   0.0000   0.0000   0.0000   0.4175
   1.300   0.6164   0.00581   0.00149  -0.1031  0.5192  0.7880  -0.8936   0.0000   0.0000   0.0000   0.4143
   1.400   0.6261   0.00572   0.00153  -0.1027  0.5157  0.8358  -0.9027   0.0000   0.0000   0.0000   0.4110
   1.500   0.6347   0.00563   0.00157  -0.1021  0.5122  0.8840  -0.9114   0.0000   0.0000   0.0000   0.4076
   1.600   0.6424   0.00558   0.00161  -0.1012  0.5089  0.9291  -0.9196   0.0000   0.0000   0.0000   0.4041
   1.700   0.6541   0.00556   0.00163  -0.1011  0.5058  0.9659  -0.9301   0.0000   0.0000   0.0000   0.4012
   1.800   0.6709   0.00559   0.00164  -0.1024  0.5021  0.9857  -0.9438   0.0000   0.0000   0.0000   0.3990
   1.900   0.6873   0.00563   0.00166  -0.1035  0.4983  0.9962  -0.9574   0.0000   0.0000   0.0000   0.3970
   2.000   0.7011   0.00567   0.00168  -0.1042  0.4951  1.0000  -0.9696   0.0000   0.0000   0.0000   0.3948
   2.100   0.7121   0.00570   0.00170  -0.1041  0.4922  1.0000  -0.9802   0.0000   0.0000   0.0000   0.3923
   2.200   0.7230   0.00574   0.00172  -0.1040  0.4890  1.0000  -0.9910   0.0000   0.0000   0.0000   0.3899
   2.300   0.7338   0.00578   0.00174  -0.1040  0.4859  1.0000  -1.0018   0.0000   0.0000   0.0000   0.3876
   2.400   0.7444   0.00583   0.00177  -0.1038  0.4829  1.0000  -1.0125   0.0000   0.0000   0.0000   0.3853
   2.500   0.7555   0.00586   0.00179  -0.1038  0.4802  1.0000  -1.0240   0.0000   0.0000   0.0000   0.3831
   2.600   0.7665   0.00589   0.00182  -0.1038  0.4773  1.0000  -1.0354   0.0000   0.0000   0.0000   0.3810
   2.700   0.7774   0.00594   0.00184  -0.1037  0.4744  1.0000  -1.0467   0.0000   0.0000   0.0000   0.3789
   2.800   0.7881   0.00599   0.00187  -0.1036  0.4714  1.0000  -1.0585   0.0000   0.0000   0.0000   0.3769
   2.900   0.7991   0.00603   0.00190  -0.1036  0.4688  1.0000  -1.0703   0.0000   0.0000   0.0000   0.3749
   3.000   0.8102   0.00606   0.00192  -0.1036  0.4661  1.0000  -1.0825   0.0000   0.0000   0.0000   0.3730
   3.100   0.8211   0.00610   0.00195  -0.1035  0.4633  1.0000  -1.0950   0.0000   0.0000   0.0000   0.3712
   3.200   0.8320   0.00614   0.00198  -0.1035  0.4604  1.0000  -1.1074   0.0000   0.0000   0.0000   0.3694
   3.300   0.8427   0.00620   0.00202  -0.1034  0.4574  1.0000  -1.1202   0.0000   0.0000   0.0000   0.3676
   3.400   0.8538   0.00623   0.00204  -0.1034  0.4550  1.0000  -1.1333   0.0000   0.0000   0.0000   0.3658
   3.500   0.8649   0.00627   0.00207  -0.1033  0.4522  1.0000  -1.1469   0.0000   0.0000   0.0000   0.3642
   3.600   0.8758   0.00631   0.00210  -0.1033  0.4492  1.0000  -1.1606   0.0000   0.0000   0.0000   0.3625
   3.700   0.8866   0.00637   0.00214  -0.1032  0.4462  1.0000  -1.1748   0.0000   0.0000   0.0000   0.3609
   3.800   0.8974   0.00642   0.00218  -0.1032  0.4433  1.0000  -1.1893   0.0000   0.0000   0.0000   0.3593
   3.900   0.9085   0.00645   0.00221  -0.1032  0.4405  1.0000  -1.2046   0.0000   0.0000   0.0000   0.3578
   4.000   0.9195   0.00649   0.00224  -0.1031  0.4372  1.0000  -1.2205   0.0000   0.0000   0.0000   0.3563
   4.100   0.9302   0.00655   0.00228  -0.1030  0.4338  1.0000  -1.2374   0.0000   0.0000   0.0000   0.3548
   4.200   0.9410   0.00661   0.00232  -0.1030  0.4306  1.0000  -1.2559   0.0000   0.0000   0.0000   0.3534
   4.300   0.9520   0.00664   0.00236  -0.1030  0.4271  1.0000  -1.2786   0.0000   0.0000   0.0000   0.3520
   4.400   0.9628   0.00670   0.00239  -0.1029  0.4232  1.0000  -1.3045   0.0000   0.0000   0.0000   0.3506
   4.500   0.9734   0.00677   0.00244  -0.1028  0.4190  1.0000  -1.3321   0.0000   0.0000   0.0000   0.3492
   4.600   0.9844   0.00681   0.00247  -0.1028  0.4152  1.0000  -1.3628   0.0000   0.0000   0.0000   0.3479
   4.700   0.9952   0.00687   0.00251  -0.1027  0.4106  1.0000  -1.3944   0.0000   0.0000   0.0000   0.3466
   4.800   1.0056   0.00694   0.00256  -0.1026  0.4059  1.0000  -1.4273   0.0000   0.0000   0.0000   0.3453
   4.900   1.0166   0.00699   0.00260  -0.1026  0.4015  1.0000  -1.4620   0.0000   0.0000   0.0000   0.3440
   5.000   1.0272   0.00705   0.00265  -0.1025  0.3964  1.0000  -1.4979   0.0000   0.0000   0.0000   0.3428
   5.100   1.0377   0.00712   0.00270  -0.1024  0.3917  1.0000  -1.5355   0.0000   0.0000   0.0000   0.3416
   5.200   1.0485   0.00718   0.00274  -0.1023  0.3864  1.0000  -1.5737   0.0000   0.0000   0.0000   0.3404
   5.300   1.0588   0.00727   0.00280  -0.1022  0.3809  1.0000  -1.6117   0.0000   0.0000   0.0000   0.3392
   5.400   1.0695   0.00733   0.00285  -0.1021  0.3756  1.0000  -1.6525   0.0000   0.0000   0.0000   0.3380
   5.500   1.0797   0.00742   0.00291  -0.1020  0.3695  1.0000  -1.6934   0.0000   0.0000   0.0000   0.3369
   5.600   1.0903   0.00749   0.00297  -0.1019  0.3638  1.0000  -1.7366   0.0000   0.0000   0.0000   0.3358
   5.700   1.1004   0.00759   0.00303  -0.1017  0.3573  1.0000  -1.7794   0.0000   0.0000   0.0000   0.3346
   5.800   1.1108   0.00767   0.00309  -0.1016  0.3510  1.0000  -1.8241   0.0000   0.0000   0.0000   0.3336
   5.900   1.1208   0.00779   0.00317  -0.1014  0.3439  1.0000  -1.8694   0.0000   0.0000   0.0000   0.3324
   6.000   1.1310   0.00787   0.00323  -0.1013  0.3367  1.0000  -1.9158   0.0000   0.0000   0.0000   0.3314
   6.100   1.1410   0.00799   0.00331  -0.1011  0.3296  1.0000  -1.9617   0.0000   0.0000   0.0000   0.3303
   6.200   1.1509   0.00810   0.00339  -0.1009  0.3216  1.0000  -2.0079   0.0000   0.0000   0.0000   0.3293
   6.300   1.1608   0.00822   0.00347  -0.1007  0.3139  1.0000  -2.0565   0.0000   0.0000   0.0000   0.3282
   6.400   1.1704   0.00835   0.00357  -0.1005  0.3056  1.0000  -2.1052   0.0000   0.0000   0.0000   0.3272
   6.500   1.1800   0.00849   0.00366  -0.1002  0.2963  1.0000  -2.1541   0.0000   0.0000   0.0000   0.3261
   6.600   1.1896   0.00863   0.00376  -0.1000  0.2870  1.0000  -2.2046   0.0000   0.0000   0.0000   0.3251
   6.700   1.1990   0.00878   0.00386  -0.0997  0.2776  1.0000  -2.2565   0.0000   0.0000   0.0000   0.3241
   6.800   1.2081   0.00894   0.00398  -0.0994  0.2676  1.0000  -2.3082   0.0000   0.0000   0.0000   0.3231
   6.900   1.2172   0.00912   0.00410  -0.0991  0.2571  1.0000  -2.3599   0.0000   0.0000   0.0000   0.3221
   7.000   1.2261   0.00930   0.00422  -0.0987  0.2464  1.0000  -2.4117   0.0000   0.0000   0.0000   0.3211
   7.100   1.2349   0.00949   0.00435  -0.0984  0.2352  1.0000  -2.4639   0.0000   0.0000   0.0000   0.3201
   7.200   1.2435   0.00969   0.00449  -0.0980  0.2238  1.0000  -2.5185   0.0000   0.0000   0.0000   0.3191
   7.300   1.2521   0.00989   0.00463  -0.0976  0.2124  1.0000  -2.5732   0.0000   0.0000   0.0000   0.3181
   7.400   1.2606   0.01010   0.00478  -0.0972  0.2011  1.0000  -2.6280   0.0000   0.0000   0.0000   0.3171
   7.500   1.2689   0.01032   0.00494  -0.0967  0.1895  1.0000  -2.6826   0.0000   0.0000   0.0000   0.3161
   7.600   1.2771   0.01054   0.00510  -0.0963  0.1779  1.0000  -2.7371   0.0000   0.0000   0.0000   0.3152
   7.700   1.2851   0.01078   0.00527  -0.0958  0.1664  1.0000  -2.7916   0.0000   0.0000   0.0000   0.3142
   7.800   1.2930   0.01101   0.00544  -0.0953  0.1553  1.0000  -2.8464   0.0000   0.0000   0.0000   0.3132
   7.900   1.3010   0.01124   0.00561  -0.0948  0.1447  1.0000  -2.9014   0.0000   0.0000   0.0000   0.3122
   8.000   1.3089   0.01147   0.00578  -0.0943  0.1347  1.0000  -2.9585   0.0000   0.0000   0.0000   0.3113
   8.100   1.3168   0.01170   0.00596  -0.0938  0.1252  1.0000  -3.0170   0.0000   0.0000   0.0000   0.3103
   8.200   1.3246   0.01193   0.00614  -0.0933  0.1164  1.0000  -3.0757   0.0000   0.0000   0.0000   0.3094
   8.300   1.3323   0.01216   0.00632  -0.0928  0.1082  1.0000  -3.1344   0.0000   0.0000   0.0000   0.3084
   8.400   1.3399   0.01240   0.00651  -0.0922  0.1004  1.0000  -3.1932   0.0000   0.0000   0.0000   0.3075
   8.500   1.3480   0.01260   0.00667  -0.0918  0.0939  1.0000  -3.2540   0.0000   0.0000   0.0000   0.3066
   8.600   1.3558   0.01281   0.00685  -0.0912  0.0878  1.0000  -3.3144   0.0000   0.0000   0.0000   0.3057
   8.800   1.3714   0.01323   0.00720  -0.0902  0.0767  1.0000  -3.4372   0.0000   0.0000   0.0000   0.3039
   8.900   1.3789   0.01345   0.00739  -0.0896  0.0717  1.0000  -3.5007   0.0000   0.0000   0.0000   0.3030
   9.000   1.3867   0.01364   0.00755  -0.0891  0.0676  1.0000  -3.5661   0.0000   0.0000   0.0000   0.3021
   9.100   1.3942   0.01385   0.00774  -0.0886  0.0635  1.0000  -3.6304   0.0000   0.0000   0.0000   0.3012
   9.200   1.4021   0.01403   0.00790  -0.0881  0.0603  1.0000  -3.6967   0.0000   0.0000   0.0000   0.3003
   9.300   1.4092   0.01424   0.00810  -0.0874  0.0568  1.0000  -3.7605   0.0000   0.0000   0.0000   0.2994
   9.400   1.4170   0.01441   0.00826  -0.0869  0.0543  1.0000  -3.8276   0.0000   0.0000   0.0000   0.2985
   9.500   1.4238   0.01461   0.00844  -0.0862  0.0516  1.0000  -3.8912   0.0000   0.0000   0.0000   0.2976
   9.600   1.4303   0.01480   0.00862  -0.0855  0.0491  1.0000  -3.9544   0.0000   0.0000   0.0000   0.2967
   9.700   1.4373   0.01497   0.00879  -0.0848  0.0471  1.0000  -4.0195   0.0000   0.0000   0.0000   0.2957
   9.800   1.4435   0.01518   0.00898  -0.0840  0.0449  1.0000  -4.0830   0.0000   0.0000   0.0000   0.2948
   9.900   1.4501   0.01538   0.00917  -0.0833  0.0429  1.0000  -4.1506   0.0000   0.0000   0.0000   0.2939
  10.000   1.4570   0.01556   0.00935  -0.0826  0.0414  1.0000  -4.2200   0.0000   0.0000   0.0000   0.2930
  10.100   1.4633   0.01577   0.00956  -0.0819  0.0397  1.0000  -4.2876   0.0000   0.0000   0.0000   0.2921
  10.200   1.4693   0.01600   0.00978  -0.0811  0.0379  1.0000  -4.3541   0.0000   0.0000   0.0000   0.2911
  10.300   1.4764   0.01618   0.00996  -0.0805  0.0369  1.0000  -4.4253   0.0000   0.0000   0.0000   0.2903
  10.400   1.4830   0.01638   0.01016  -0.0798  0.0357  1.0000  -4.4952   0.0000   0.0000   0.0000   0.2894
  10.500   1.4891   0.01661   0.01039  -0.0790  0.0344  1.0000  -4.5633   0.0000   0.0000   0.0000   0.2886
  10.600   1.4948   0.01686   0.01063  -0.0782  0.0330  1.0000  -4.6299   0.0000   0.0000   0.0000   0.2877
  10.700   1.5017   0.01704   0.01083  -0.0776  0.0322  1.0000  -4.7023   0.0000   0.0000   0.0000   0.2869
  10.800   1.5082   0.01726   0.01105  -0.0770  0.0313  1.0000  -4.7732   0.0000   0.0000   0.0000   0.2860
  10.900   1.5142   0.01750   0.01129  -0.0762  0.0303  1.0000  -4.8425   0.0000   0.0000   0.0000   0.2852
  11.000   1.5197   0.01776   0.01155  -0.0755  0.0293  1.0000  -4.9101   0.0000   0.0000   0.0000   0.2843
  11.100   1.5256   0.01802   0.01181  -0.0747  0.0284  1.0000  -4.9791   0.0000   0.0000   0.0000   0.2835
  11.200   1.5321   0.01823   0.01204  -0.0741  0.0278  1.0000  -5.0518   0.0000   0.0000   0.0000   0.2827
  11.300   1.5382   0.01847   0.01229  -0.0735  0.0272  1.0000  -5.1231   0.0000   0.0000   0.0000   0.2819
  11.400   1.5441   0.01873   0.01255  -0.0728  0.0265  1.0000  -5.1934   0.0000   0.0000   0.0000   0.2811
  11.500   1.5494   0.01902   0.01284  -0.0720  0.0258  1.0000  -5.2619   0.0000   0.0000   0.0000   0.2803
  11.600   1.5543   0.01934   0.01317  -0.0712  0.0250  1.0000  -5.3310   0.0000   0.0000   0.0000   0.2795
  11.700   1.5600   0.01961   0.01345  -0.0706  0.0245  1.0000  -5.4052   0.0000   0.0000   0.0000   0.2787
  11.800   1.5661   0.01986   0.01372  -0.0699  0.0241  1.0000  -5.4818   0.0000   0.0000   0.0000   0.2779
  11.900   1.5719   0.02014   0.01401  -0.0693  0.0236  1.0000  -5.5571   0.0000   0.0000   0.0000   0.2772
  12.000   1.5773   0.02044   0.01431  -0.0686  0.0231  1.0000  -5.6314   0.0000   0.0000   0.0000   0.2764
  12.100   1.5823   0.02076   0.01465  -0.0679  0.0225  1.0000  -5.7039   0.0000   0.0000   0.0000   0.2757
  12.200   1.5869   0.02112   0.01501  -0.0672  0.0220  1.0000  -5.7746   0.0000   0.0000   0.0000   0.2749
  12.300   1.5909   0.02153   0.01542  -0.0663  0.0214  1.0000  -5.8420   0.0000   0.0000   0.0000   0.2741
  12.400   1.5964   0.02184   0.01575  -0.0657  0.0211  1.0000  -5.9179   0.0000   0.0000   0.0000   0.2734
  12.500   1.6020   0.02214   0.01607  -0.0652  0.0208  1.0000  -5.9948   0.0000   0.0000   0.0000   0.2727
  12.600   1.6072   0.02247   0.01642  -0.0645  0.0204  1.0000  -6.0699   0.0000   0.0000   0.0000   0.2720
  12.700   1.6121   0.02283   0.01679  -0.0639  0.0201  1.0000  -6.1437   0.0000   0.0000   0.0000   0.2713
  12.800   1.6168   0.02321   0.01719  -0.0632  0.0197  1.0000  -6.2168   0.0000   0.0000   0.0000   0.2706
  12.900   1.6211   0.02362   0.01761  -0.0626  0.0194  1.0000  -6.2884   0.0000   0.0000   0.0000   0.2699
  13.000   1.6250   0.02406   0.01806  -0.0619  0.0190  1.0000  -6.3584   0.0000   0.0000   0.0000   0.2692
  13.100   1.6283   0.02456   0.01857  -0.0611  0.0186  1.0000  -6.4247   0.0000   0.0000   0.0000   0.2684
  13.200   1.6314   0.02507   0.01909  -0.0604  0.0183  1.0000  -6.4897   0.0000   0.0000   0.0000   0.2677
  13.300   1.6364   0.02545   0.01950  -0.0598  0.0181  1.0000  -6.5656   0.0000   0.0000   0.0000   0.2671
  13.400   1.6411   0.02586   0.01993  -0.0593  0.0179  1.0000  -6.6404   0.0000   0.0000   0.0000   0.2664
  13.500   1.6455   0.02629   0.02038  -0.0587  0.0176  1.0000  -6.7144   0.0000   0.0000   0.0000   0.2658
  13.600   1.6497   0.02675   0.02086  -0.0581  0.0174  1.0000  -6.7872   0.0000   0.0000   0.0000   0.2652
  13.700   1.6537   0.02723   0.02136  -0.0576  0.0172  1.0000  -6.8591   0.0000   0.0000   0.0000   0.2645
  13.800   1.6573   0.02775   0.02189  -0.0570  0.0169  1.0000  -6.9295   0.0000   0.0000   0.0000   0.2639
  13.900   1.6607   0.02828   0.02244  -0.0564  0.0167  1.0000  -6.9991   0.0000   0.0000   0.0000   0.2633
  14.000   1.6636   0.02886   0.02304  -0.0558  0.0164  1.0000  -7.0662   0.0000   0.0000   0.0000   0.2627
  14.100   1.6661   0.02948   0.02367  -0.0552  0.0162  1.0000  -7.1316   0.0000   0.0000   0.0000   0.2620
  14.200   1.6678   0.03018   0.02439  -0.0545  0.0159  1.0000  -7.1947   0.0000   0.0000   0.0000   0.2614
  14.300   1.6693   0.03092   0.02515  -0.0539  0.0156  1.0000  -7.2556   0.0000   0.0000   0.0000   0.2608
  14.400   1.6732   0.03145   0.02571  -0.0535  0.0155  1.0000  -7.3325   0.0000   0.0000   0.0000   0.2602
  14.500   1.6768   0.03201   0.02630  -0.0530  0.0153  1.0000  -7.4080   0.0000   0.0000   0.0000   0.2597
  14.600   1.6801   0.03261   0.02692  -0.0526  0.0152  1.0000  -7.4814   0.0000   0.0000   0.0000   0.2591
  14.700   1.6832   0.03323   0.02756  -0.0521  0.0150  1.0000  -7.5542   0.0000   0.0000   0.0000   0.2586
  14.800   1.6859   0.03388   0.02824  -0.0517  0.0148  1.0000  -7.6253   0.0000   0.0000   0.0000   0.2581
  14.900   1.6886   0.03456   0.02894  -0.0512  0.0147  1.0000  -7.6958   0.0000   0.0000   0.0000   0.2575
  15.000   1.6908   0.03528   0.02968  -0.0508  0.0145  1.0000  -7.7642   0.0000   0.0000   0.0000   0.2570


