xflr5 v6.61

 Calculated polar for: NACA 4412

 1 1 Reynolds number fixed          Mach number fixed         

 xtrf =   1.000 (top)        1.000 (bottom)
 Mach =   0.000     Re =     1.000 e 6     Ncrit =   9.000

  alpha     CL        CD       CDp       Cm    Top Xtr Bot Xtr   Cpmin    Chinge    XCp    
 ------- -------- --------- --------- -------- ------- ------- -------- --------- ---------
 -14.400  -0.7790   0.07481   0.07253  -0.0627  1.0000  0.0151  -8.4975   0.0000   0.0000   0.0000   0.1495
 -14.300  -0.8458   0.06244   0.05998  -0.0713  1.0000  0.0149  -9.3261   0.0000   0.0000   0.0000   0.1464
 -14.200  -0.9000   0.05184   0.04922  -0.0794  1.0000  0.0146  -9.9816   0.0000   0.0000   0.0000   0.1432
 -14.100  -0.9320   0.04327   0.04048  -0.0871  1.0000  0.0145  -10.3961   0.0000   0.0000   0.0000   0.1384
 -14.000  -0.9530   0.03663   0.03365  -0.0953  1.0000  0.0144  -10.6633   0.0000   0.0000   0.0000   0.1325
 -13.900  -0.9695   0.03529   0.03226  -0.0942  1.0000  0.0144  -10.7465   0.0000   0.0000   0.0000   0.1357
 -13.800  -0.9830   0.03448   0.03141  -0.0920  1.0000  0.0144  -10.7937   0.0000   0.0000   0.0000   0.1396
 -13.700  -0.9924   0.03356   0.03044  -0.0904  1.0000  0.0144  -10.8164   0.0000   0.0000   0.0000   0.1424
 -13.600  -1.0005   0.03272   0.02956  -0.0887  1.0000  0.0144  -10.8271   0.0000   0.0000   0.0000   0.1450
 -13.500  -1.0069   0.03194   0.02873  -0.0871  1.0000  0.0144  -10.8250   0.0000   0.0000   0.0000   0.1474
 -13.400  -1.0043   0.03091   0.02764  -0.0874  0.9995  0.0145  -10.7685   0.0000   0.0000   0.0000   0.1471
 -13.300  -0.9961   0.02992   0.02660  -0.0886  0.9987  0.0146  -10.6704   0.0000   0.0000   0.0000   0.1453
 -13.200  -0.9868   0.02911   0.02575  -0.0895  0.9980  0.0147  -10.5607   0.0000   0.0000   0.0000   0.1436
 -13.100  -0.9770   0.02841   0.02500  -0.0905  0.9973  0.0148  -10.4441   0.0000   0.0000   0.0000   0.1419
 -13.000  -0.9667   0.02777   0.02432  -0.0913  0.9967  0.0149  -10.3234   0.0000   0.0000   0.0000   0.1401
 -12.900  -0.9561   0.02717   0.02368  -0.0922  0.9961  0.0150  -10.2001   0.0000   0.0000   0.0000   0.1383
 -12.800  -0.9452   0.02660   0.02307  -0.0930  0.9956  0.0151  -10.0752   0.0000   0.0000   0.0000   0.1364
 -12.700  -0.9340   0.02605   0.02248  -0.0938  0.9952  0.0152  -9.9496   0.0000   0.0000   0.0000   0.1345
 -12.600  -0.9241   0.02553   0.02191  -0.0943  0.9943  0.0153  -9.8321   0.0000   0.0000   0.0000   0.1330
 -12.500  -0.9139   0.02501   0.02135  -0.0948  0.9934  0.0154  -9.7132   0.0000   0.0000   0.0000   0.1314
 -12.400  -0.9033   0.02451   0.02079  -0.0954  0.9925  0.0155  -9.5932   0.0000   0.0000   0.0000   0.1296
 -12.300  -0.8924   0.02400   0.02024  -0.0960  0.9917  0.0156  -9.4727   0.0000   0.0000   0.0000   0.1278
 -12.200  -0.8813   0.02351   0.01969  -0.0966  0.9910  0.0158  -9.3517   0.0000   0.0000   0.0000   0.1258
 -12.100  -0.8700   0.02303   0.01916  -0.0972  0.9903  0.0159  -9.2300   0.0000   0.0000   0.0000   0.1237
 -12.000  -0.8584   0.02256   0.01863  -0.0979  0.9898  0.0160  -9.1075   0.0000   0.0000   0.0000   0.1216
 -11.900  -0.8466   0.02212   0.01813  -0.0985  0.9892  0.0162  -8.9838   0.0000   0.0000   0.0000   0.1193
 -11.800  -0.8346   0.02170   0.01765  -0.0992  0.9887  0.0163  -8.8588   0.0000   0.0000   0.0000   0.1169
 -11.700  -0.8223   0.02131   0.01720  -0.0999  0.9883  0.0164  -8.7373   0.0000   0.0000   0.0000   0.1144
 -11.600  -0.8097   0.02096   0.01681  -0.1005  0.9879  0.0165  -8.6153   0.0000   0.0000   0.0000   0.1117
 -11.500  -0.7972   0.02057   0.01636  -0.1012  0.9876  0.0166  -8.4966   0.0000   0.0000   0.0000   0.1090
 -11.400  -0.7867   0.01973   0.01546  -0.1020  0.9872  0.0169  -8.4050   0.0000   0.0000   0.0000   0.1063
 -11.300  -0.7772   0.01930   0.01501  -0.1021  0.9857  0.0171  -8.3014   0.0000   0.0000   0.0000   0.1047
 -11.200  -0.7662   0.01898   0.01466  -0.1024  0.9845  0.0172  -8.1854   0.0000   0.0000   0.0000   0.1025
 -11.100  -0.7543   0.01869   0.01436  -0.1028  0.9836  0.0174  -8.0637   0.0000   0.0000   0.0000   0.0999
 -11.000  -0.7420   0.01842   0.01407  -0.1033  0.9829  0.0176  -7.9405   0.0000   0.0000   0.0000   0.0970
 -10.900  -0.7294   0.01815   0.01378  -0.1039  0.9823  0.0177  -7.8175   0.0000   0.0000   0.0000   0.0938
 -10.800  -0.7166   0.01788   0.01348  -0.1045  0.9818  0.0179  -7.6957   0.0000   0.0000   0.0000   0.0905
 -10.700  -0.7038   0.01759   0.01316  -0.1051  0.9812  0.0181  -7.5754   0.0000   0.0000   0.0000   0.0870
 -10.600  -0.6909   0.01731   0.01284  -0.1057  0.9807  0.0183  -7.4566   0.0000   0.0000   0.0000   0.0834
 -10.500  -0.6782   0.01703   0.01253  -0.1062  0.9802  0.0185  -7.3396   0.0000   0.0000   0.0000   0.0798
 -10.400  -0.6655   0.01676   0.01221  -0.1068  0.9796  0.0187  -7.2237   0.0000   0.0000   0.0000   0.0760
 -10.300  -0.6527   0.01649   0.01191  -0.1073  0.9791  0.0189  -7.1081   0.0000   0.0000   0.0000   0.0721
 -10.200  -0.6398   0.01625   0.01163  -0.1078  0.9785  0.0191  -6.9921   0.0000   0.0000   0.0000   0.0680
 -10.100  -0.6269   0.01604   0.01137  -0.1083  0.9780  0.0192  -6.8759   0.0000   0.0000   0.0000   0.0637
 -10.000  -0.6177   0.01572   0.01101  -0.1081  0.9759  0.0194  -6.7839   0.0000   0.0000   0.0000   0.0615
  -9.900  -0.6085   0.01527   0.01054  -0.1080  0.9739  0.0197  -6.6944   0.0000   0.0000   0.0000   0.0591
  -9.800  -0.5977   0.01498   0.01023  -0.1081  0.9724  0.0199  -6.5902   0.0000   0.0000   0.0000   0.0557
  -9.700  -0.5861   0.01475   0.00999  -0.1084  0.9711  0.0201  -6.4808   0.0000   0.0000   0.0000   0.0517
  -9.600  -0.5744   0.01455   0.00977  -0.1086  0.9699  0.0203  -6.3704   0.0000   0.0000   0.0000   0.0476
  -9.500  -0.5627   0.01436   0.00956  -0.1088  0.9688  0.0206  -6.2608   0.0000   0.0000   0.0000   0.0432
  -9.400  -0.5510   0.01417   0.00936  -0.1090  0.9678  0.0208  -6.1528   0.0000   0.0000   0.0000   0.0388
  -9.300  -0.5413   0.01401   0.00917  -0.1088  0.9655  0.0210  -6.0551   0.0000   0.0000   0.0000   0.0357
  -9.200  -0.5313   0.01384   0.00898  -0.1086  0.9631  0.0213  -5.9566   0.0000   0.0000   0.0000   0.0323
  -9.100  -0.5207   0.01368   0.00879  -0.1085  0.9611  0.0216  -5.8562   0.0000   0.0000   0.0000   0.0283
  -9.000  -0.5099   0.01353   0.00861  -0.1084  0.9592  0.0218  -5.7553   0.0000   0.0000   0.0000   0.0240
  -8.900  -0.4989   0.01339   0.00843  -0.1084  0.9575  0.0221  -5.6580   0.0000   0.0000   0.0000   0.0194
  -8.800  -0.4883   0.01324   0.00825  -0.1083  0.9555  0.0223  -5.5655   0.0000   0.0000   0.0000   0.0149
  -8.700  -0.4798   0.01288   0.00787  -0.1079  0.9521  0.0227  -5.4900   0.0000   0.0000   0.0000   0.0118
  -8.600  -0.4701   0.01266   0.00764  -0.1077  0.9492  0.0230  -5.4020   0.0000   0.0000   0.0000   0.0076
  -8.500  -0.4598   0.01250   0.00746  -0.1075  0.9468  0.0233  -5.3106   0.0000   0.0000   0.0000   0.0028
  -8.400  -0.4490   0.01235   0.00729  -0.1074  0.9447  0.0236  -5.2178   0.0000   0.0000   0.0000  -0.0026
  -8.300  -0.4390   0.01221   0.00715  -0.1072  0.9417  0.0239  -5.1287   0.0000   0.0000   0.0000  -0.0077
  -8.200  -0.4287   0.01208   0.00699  -0.1071  0.9388  0.0242  -5.0399   0.0000   0.0000   0.0000  -0.0131
  -8.100  -0.4182   0.01195   0.00684  -0.1069  0.9363  0.0245  -4.9511   0.0000   0.0000   0.0000  -0.0191
  -8.000  -0.4075   0.01182   0.00668  -0.1068  0.9342  0.0249  -4.8622   0.0000   0.0000   0.0000  -0.0257
  -7.800  -0.3859   0.01160   0.00640  -0.1066  0.9298  0.0254  -4.6853   0.0000   0.0000   0.0000  -0.0400
  -7.700  -0.3759   0.01135   0.00613  -0.1065  0.9270  0.0259  -4.6054   0.0000   0.0000   0.0000  -0.0470
  -7.600  -0.3655   0.01116   0.00593  -0.1064  0.9245  0.0263  -4.5208   0.0000   0.0000   0.0000  -0.0548
  -7.500  -0.3548   0.01103   0.00579  -0.1063  0.9222  0.0268  -4.4327   0.0000   0.0000   0.0000  -0.0635
  -7.400  -0.3439   0.01092   0.00566  -0.1062  0.9201  0.0272  -4.3441   0.0000   0.0000   0.0000  -0.0730
  -7.300  -0.3331   0.01082   0.00555  -0.1062  0.9174  0.0277  -4.2572   0.0000   0.0000   0.0000  -0.0829
  -7.200  -0.3222   0.01072   0.00544  -0.1061  0.9145  0.0282  -4.1713   0.0000   0.0000   0.0000  -0.0935
  -7.100  -0.3113   0.01063   0.00532  -0.1060  0.9118  0.0286  -4.0860   0.0000   0.0000   0.0000  -0.1050
  -7.000  -0.3003   0.01055   0.00521  -0.1059  0.9094  0.0290  -4.0008   0.0000   0.0000   0.0000  -0.1175
  -6.900  -0.2897   0.01036   0.00499  -0.1058  0.9071  0.0296  -3.9213   0.0000   0.0000   0.0000  -0.1303
  -6.800  -0.2791   0.01020   0.00483  -0.1058  0.9042  0.0302  -3.8399   0.0000   0.0000   0.0000  -0.1442
  -6.700  -0.2682   0.01009   0.00472  -0.1057  0.9013  0.0307  -3.7586   0.0000   0.0000   0.0000  -0.1596
  -6.600  -0.2572   0.01000   0.00461  -0.1057  0.8985  0.0313  -3.6804   0.0000   0.0000   0.0000  -0.1765
  -6.500  -0.2462   0.00991   0.00450  -0.1056  0.8959  0.0319  -3.6030   0.0000   0.0000   0.0000  -0.1949
  -6.400  -0.2351   0.00984   0.00440  -0.1056  0.8932  0.0325  -3.5262   0.0000   0.0000   0.0000  -0.2153
  -6.300  -0.2240   0.00977   0.00431  -0.1055  0.8900  0.0330  -3.4495   0.0000   0.0000   0.0000  -0.2378
  -6.200  -0.2133   0.00961   0.00415  -0.1054  0.8869  0.0338  -3.3771   0.0000   0.0000   0.0000  -0.2616
  -6.100  -0.2024   0.00949   0.00402  -0.1054  0.8840  0.0347  -3.3025   0.0000   0.0000   0.0000  -0.2883
  -6.000  -0.1914   0.00941   0.00392  -0.1053  0.8812  0.0354  -3.2269   0.0000   0.0000   0.0000  -0.3187
  -5.900  -0.1802   0.00934   0.00384  -0.1053  0.8779  0.0362  -3.1521   0.0000   0.0000   0.0000  -0.3532
  -5.800  -0.1691   0.00927   0.00375  -0.1053  0.8746  0.0370  -3.0784   0.0000   0.0000   0.0000  -0.3921
  -5.700  -0.1580   0.00921   0.00367  -0.1052  0.8716  0.0376  -3.0050   0.0000   0.0000   0.0000  -0.4366
  -5.600  -0.1471   0.00908   0.00351  -0.1051  0.8687  0.0387  -2.9352   0.0000   0.0000   0.0000  -0.4864
  -5.500  -0.1360   0.00898   0.00342  -0.1051  0.8653  0.0397  -2.8632   0.0000   0.0000   0.0000  -0.5455
  -5.400  -0.1249   0.00891   0.00334  -0.1051  0.8618  0.0407  -2.7910   0.0000   0.0000   0.0000  -0.6154
  -5.300  -0.1138   0.00885   0.00326  -0.1050  0.8585  0.0417  -2.7195   0.0000   0.0000   0.0000  -0.6989
  -5.200  -0.1026   0.00881   0.00319  -0.1050  0.8553  0.0426  -2.6507   0.0000   0.0000   0.0000  -0.8015
  -5.100  -0.0916   0.00869   0.00307  -0.1050  0.8516  0.0440  -2.5868   0.0000   0.0000   0.0000  -0.9268
  -5.000  -0.0805   0.00861   0.00299  -0.1049  0.8479  0.0453  -2.5217   0.0000   0.0000   0.0000  -1.0869
  -4.900  -0.0694   0.00855   0.00292  -0.1049  0.8445  0.0466  -2.4568   0.0000   0.0000   0.0000  -1.2990
  -4.800  -0.0582   0.00850   0.00285  -0.1049  0.8410  0.0478  -2.3922   0.0000   0.0000   0.0000  -1.5968
  -4.700  -0.0470   0.00845   0.00278  -0.1048  0.8372  0.0490  -2.3286   0.0000   0.0000   0.0000  -2.0358
  -4.600  -0.0360   0.00835   0.00268  -0.1048  0.8335  0.0509  -2.2665   0.0000   0.0000   0.0000  -2.7310
  -4.500  -0.0248   0.00829   0.00261  -0.1048  0.8300  0.0526  -2.2035   0.0000   0.0000   0.0000  -4.0606
  -4.400  -0.0136   0.00825   0.00256  -0.1047  0.8260  0.0542  -2.1407   0.0000   0.0000   0.0000  -7.6322
  -4.300  -0.0024   0.00820   0.00249  -0.1047  0.8220  0.0558  -2.0804   0.0000   0.0000   0.0000  -43.9528
  -4.100   0.0198   0.00807   0.00236  -0.1046  0.8141  0.0602  -1.9664   0.0000   0.0000   0.0000   5.6360
  -4.000   0.0310   0.00803   0.00230  -0.1046  0.8099  0.0620  -1.9096   0.0000   0.0000   0.0000   3.6854
  -3.900   0.0421   0.00797   0.00223  -0.1046  0.8059  0.0647  -1.8543   0.0000   0.0000   0.0000   2.7822
  -3.800   0.0533   0.00791   0.00218  -0.1046  0.8018  0.0673  -1.7984   0.0000   0.0000   0.0000   2.2482
  -3.700   0.0645   0.00788   0.00213  -0.1045  0.7974  0.0698  -1.7430   0.0000   0.0000   0.0000   1.8992
  -3.600   0.0755   0.00783   0.00207  -0.1045  0.7932  0.0726  -1.6889   0.0000   0.0000   0.0000   1.6562
  -3.500   0.0867   0.00778   0.00202  -0.1045  0.7890  0.0759  -1.6346   0.0000   0.0000   0.0000   1.4739
  -3.400   0.0979   0.00775   0.00198  -0.1044  0.7843  0.0788  -1.5838   0.0000   0.0000   0.0000   1.3330
  -3.300   0.1090   0.00771   0.00193  -0.1044  0.7800  0.0824  -1.5343   0.0000   0.0000   0.0000   1.2223
  -3.200   0.1202   0.00766   0.00189  -0.1044  0.7754  0.0863  -1.4845   0.0000   0.0000   0.0000   1.1310
  -3.100   0.1314   0.00763   0.00185  -0.1044  0.7706  0.0895  -1.4352   0.0000   0.0000   0.0000   1.0552
  -3.000   0.1424   0.00759   0.00180  -0.1043  0.7663  0.0942  -1.3870   0.0000   0.0000   0.0000   0.9922
  -2.900   0.1536   0.00755   0.00177  -0.1043  0.7615  0.0986  -1.3385   0.0000   0.0000   0.0000   0.9374
  -2.800   0.1647   0.00752   0.00173  -0.1043  0.7566  0.1032  -1.2908   0.0000   0.0000   0.0000   0.8905
  -2.700   0.1758   0.00749   0.00170  -0.1042  0.7520  0.1084  -1.2439   0.0000   0.0000   0.0000   0.8495
  -2.600   0.1870   0.00746   0.00167  -0.1042  0.7470  0.1133  -1.1998   0.0000   0.0000   0.0000   0.8132
  -2.500   0.1980   0.00743   0.00164  -0.1042  0.7420  0.1192  -1.1564   0.0000   0.0000   0.0000   0.7813
  -2.400   0.2092   0.00740   0.00161  -0.1041  0.7372  0.1246  -1.1130   0.0000   0.0000   0.0000   0.7525
  -2.300   0.2203   0.00736   0.00158  -0.1041  0.7320  0.1311  -1.0702   0.0000   0.0000   0.0000   0.7268
  -2.200   0.2314   0.00735   0.00156  -0.1041  0.7272  0.1370  -1.0294   0.0000   0.0000   0.0000   0.7035
  -2.100   0.2425   0.00731   0.00154  -0.1041  0.7220  0.1441  -0.9898   0.0000   0.0000   0.0000   0.6823
  -2.000   0.2536   0.00730   0.00152  -0.1040  0.7168  0.1508  -0.9508   0.0000   0.0000   0.0000   0.6631
  -1.900   0.2647   0.00727   0.00150  -0.1040  0.7117  0.1583  -0.9120   0.0000   0.0000   0.0000   0.6454
  -1.800   0.2758   0.00725   0.00148  -0.1040  0.7063  0.1659  -0.8737   0.0000   0.0000   0.0000   0.6292
  -1.600   0.2980   0.00721   0.00145  -0.1039  0.6959  0.1823  -0.8018   0.0000   0.0000   0.0000   0.6003
  -1.500   0.3089   0.00720   0.00144  -0.1039  0.6906  0.1907  -0.7669   0.0000   0.0000   0.0000   0.5875
  -1.300   0.3311   0.00716   0.00142  -0.1038  0.6798  0.2093  -0.6978   0.0000   0.0000   0.0000   0.5643
  -1.200   0.3421   0.00715   0.00141  -0.1038  0.6747  0.2188  -0.6756   0.0000   0.0000   0.0000   0.5539
  -1.100   0.3532   0.00713   0.00140  -0.1038  0.6692  0.2288  -0.6835   0.0000   0.0000   0.0000   0.5441
  -0.900   0.3753   0.00710   0.00140  -0.1037  0.6585  0.2506  -0.6996   0.0000   0.0000   0.0000   0.5263
  -0.800   0.3863   0.00709   0.00140  -0.1037  0.6529  0.2623  -0.7077   0.0000   0.0000   0.0000   0.5181
  -0.700   0.3973   0.00707   0.00140  -0.1036  0.6478  0.2745  -0.7158   0.0000   0.0000   0.0000   0.5104
  -0.600   0.4083   0.00706   0.00140  -0.1036  0.6422  0.2873  -0.7240   0.0000   0.0000   0.0000   0.5032
  -0.500   0.4192   0.00705   0.00140  -0.1036  0.6371  0.3008  -0.7321   0.0000   0.0000   0.0000   0.4963
  -0.400   0.4304   0.00703   0.00140  -0.1036  0.6317  0.3156  -0.7406   0.0000   0.0000   0.0000   0.4897
  -0.300   0.4412   0.00701   0.00141  -0.1035  0.6263  0.3314  -0.7490   0.0000   0.0000   0.0000   0.4836
  -0.200   0.4522   0.00699   0.00141  -0.1035  0.6212  0.3490  -0.7574   0.0000   0.0000   0.0000   0.4777
  -0.100   0.4632   0.00695   0.00142  -0.1035  0.6158  0.3698  -0.7659   0.0000   0.0000   0.0000   0.4721
   0.000   0.4739   0.00691   0.00143  -0.1034  0.6110  0.3952  -0.7742   0.0000   0.0000   0.0000   0.4668
   0.100   0.4847   0.00682   0.00144  -0.1034  0.6057  0.4342  -0.7829   0.0000   0.0000   0.0000   0.4617
   0.200   0.4952   0.00671   0.00146  -0.1033  0.6006  0.4894  -0.7914   0.0000   0.0000   0.0000   0.4570
   0.300   0.5057   0.00660   0.00148  -0.1033  0.5958  0.5442  -0.8000   0.0000   0.0000   0.0000   0.4524
   0.400   0.5163   0.00650   0.00151  -0.1032  0.5908  0.5946  -0.8086   0.0000   0.0000   0.0000   0.4479
   0.500   0.5265   0.00643   0.00154  -0.1030  0.5861  0.6429  -0.8170   0.0000   0.0000   0.0000   0.4436
   0.600   0.5369   0.00633   0.00157  -0.1029  0.5814  0.6900  -0.8259   0.0000   0.0000   0.0000   0.4394
   0.700   0.5470   0.00624   0.00160  -0.1027  0.5766  0.7373  -0.8346   0.0000   0.0000   0.0000   0.4353
   0.800   0.5564   0.00615   0.00164  -0.1023  0.5723  0.7870  -0.8430   0.0000   0.0000   0.0000   0.4313
   0.900   0.5654   0.00604   0.00167  -0.1017  0.5679  0.8386  -0.8512   0.0000   0.0000   0.0000   0.4273
   1.000   0.5733   0.00595   0.00171  -0.1008  0.5636  0.8896  -0.8589   0.0000   0.0000   0.0000   0.4231
   1.100   0.5818   0.00592   0.00175  -0.1000  0.5596  0.9377  -0.8671   0.0000   0.0000   0.0000   0.4191
   1.200   0.5982   0.00592   0.00176  -0.1011  0.5549  0.9719  -0.8799   0.0000   0.0000   0.0000   0.4160
   1.300   0.6159   0.00596   0.00178  -0.1025  0.5502  0.9895  -0.8933   0.0000   0.0000   0.0000   0.4134
   1.400   0.6335   0.00601   0.00179  -0.1040  0.5459  0.9999  -0.9070   0.0000   0.0000   0.0000   0.4110
   1.500   0.6444   0.00604   0.00181  -0.1039  0.5418  1.0000  -0.9169   0.0000   0.0000   0.0000   0.4080
   1.600   0.6549   0.00609   0.00182  -0.1037  0.5377  1.0000  -0.9266   0.0000   0.0000   0.0000   0.4051
   1.700   0.6654   0.00615   0.00185  -0.1036  0.5341  1.0000  -0.9362   0.0000   0.0000   0.0000   0.4022
   1.800   0.6762   0.00618   0.00187  -0.1035  0.5304  1.0000  -0.9465   0.0000   0.0000   0.0000   0.3995
   1.900   0.6869   0.00622   0.00189  -0.1034  0.5266  1.0000  -0.9568   0.0000   0.0000   0.0000   0.3969
   2.000   0.6975   0.00627   0.00191  -0.1033  0.5230  1.0000  -0.9669   0.0000   0.0000   0.0000   0.3943
   2.100   0.7082   0.00632   0.00194  -0.1032  0.5197  1.0000  -0.9773   0.0000   0.0000   0.0000   0.3918
   2.200   0.7191   0.00635   0.00196  -0.1031  0.5162  1.0000  -0.9881   0.0000   0.0000   0.0000   0.3894
   2.300   0.7298   0.00640   0.00198  -0.1030  0.5127  1.0000  -0.9988   0.0000   0.0000   0.0000   0.3871
   2.400   0.7403   0.00646   0.00201  -0.1029  0.5094  1.0000  -1.0095   0.0000   0.0000   0.0000   0.3848
   2.500   0.7512   0.00650   0.00204  -0.1028  0.5064  1.0000  -1.0208   0.0000   0.0000   0.0000   0.3826
   2.600   0.7621   0.00653   0.00207  -0.1028  0.5031  1.0000  -1.0321   0.0000   0.0000   0.0000   0.3805
   2.700   0.7729   0.00658   0.00210  -0.1027  0.4998  1.0000  -1.0433   0.0000   0.0000   0.0000   0.3784
   2.800   0.7835   0.00664   0.00213  -0.1026  0.4968  1.0000  -1.0549   0.0000   0.0000   0.0000   0.3763
   2.900   0.7944   0.00668   0.00216  -0.1025  0.4939  1.0000  -1.0668   0.0000   0.0000   0.0000   0.3743
   3.000   0.8054   0.00672   0.00219  -0.1025  0.4908  1.0000  -1.0788   0.0000   0.0000   0.0000   0.3724
   3.100   0.8162   0.00677   0.00223  -0.1024  0.4877  1.0000  -1.0911   0.0000   0.0000   0.0000   0.3706
   3.200   0.8268   0.00683   0.00226  -0.1023  0.4847  1.0000  -1.1034   0.0000   0.0000   0.0000   0.3687
   3.300   0.8376   0.00688   0.00230  -0.1022  0.4819  1.0000  -1.1161   0.0000   0.0000   0.0000   0.3669
   3.400   0.8486   0.00691   0.00233  -0.1022  0.4790  1.0000  -1.1292   0.0000   0.0000   0.0000   0.3652
   3.500   0.8595   0.00696   0.00237  -0.1021  0.4760  1.0000  -1.1425   0.0000   0.0000   0.0000   0.3635
   3.600   0.8702   0.00701   0.00240  -0.1020  0.4730  1.0000  -1.1560   0.0000   0.0000   0.0000   0.3618
   3.700   0.8807   0.00708   0.00245  -0.1019  0.4701  1.0000  -1.1699   0.0000   0.0000   0.0000   0.3602
   3.800   0.8918   0.00712   0.00249  -0.1019  0.4673  1.0000  -1.1845   0.0000   0.0000   0.0000   0.3586
   3.900   0.9027   0.00716   0.00252  -0.1018  0.4643  1.0000  -1.1995   0.0000   0.0000   0.0000   0.3571
   4.000   0.9134   0.00721   0.00256  -0.1018  0.4612  1.0000  -1.2152   0.0000   0.0000   0.0000   0.3556
   4.100   0.9240   0.00728   0.00261  -0.1017  0.4581  1.0000  -1.2315   0.0000   0.0000   0.0000   0.3541
   4.200   0.9348   0.00733   0.00265  -0.1016  0.4552  1.0000  -1.2496   0.0000   0.0000   0.0000   0.3526
   4.300   0.9458   0.00737   0.00269  -0.1016  0.4520  1.0000  -1.2710   0.0000   0.0000   0.0000   0.3512
   4.400   0.9565   0.00742   0.00274  -0.1015  0.4485  1.0000  -1.2959   0.0000   0.0000   0.0000   0.3498
   4.500   0.9669   0.00750   0.00279  -0.1014  0.4451  1.0000  -1.3231   0.0000   0.0000   0.0000   0.3484
   4.600   0.9778   0.00754   0.00283  -0.1013  0.4418  1.0000  -1.3526   0.0000   0.0000   0.0000   0.3471
   4.700   0.9886   0.00759   0.00287  -0.1012  0.4379  1.0000  -1.3841   0.0000   0.0000   0.0000   0.3458
   4.800   0.9991   0.00766   0.00292  -0.1011  0.4339  1.0000  -1.4164   0.0000   0.0000   0.0000   0.3445
   4.900   1.0096   0.00773   0.00298  -0.1010  0.4300  1.0000  -1.4497   0.0000   0.0000   0.0000   0.3432
   5.000   1.0204   0.00777   0.00302  -0.1010  0.4257  1.0000  -1.4855   0.0000   0.0000   0.0000   0.3420
   5.100   1.0309   0.00784   0.00307  -0.1009  0.4212  1.0000  -1.5224   0.0000   0.0000   0.0000   0.3408
   5.200   1.0414   0.00791   0.00312  -0.1007  0.4170  1.0000  -1.5600   0.0000   0.0000   0.0000   0.3395
   5.300   1.0521   0.00796   0.00317  -0.1007  0.4124  1.0000  -1.5984   0.0000   0.0000   0.0000   0.3384
   5.400   1.0624   0.00804   0.00323  -0.1005  0.4077  1.0000  -1.6380   0.0000   0.0000   0.0000   0.3372
   5.500   1.0730   0.00811   0.00329  -0.1005  0.4033  1.0000  -1.6787   0.0000   0.0000   0.0000   0.3361
   5.600   1.0836   0.00817   0.00334  -0.1004  0.3983  1.0000  -1.7216   0.0000   0.0000   0.0000   0.3349
   5.700   1.0937   0.00826   0.00340  -0.1002  0.3934  1.0000  -1.7642   0.0000   0.0000   0.0000   0.3338
   5.800   1.1044   0.00832   0.00346  -0.1001  0.3882  1.0000  -1.8083   0.0000   0.0000   0.0000   0.3327
   5.900   1.1145   0.00841   0.00352  -0.1000  0.3826  1.0000  -1.8539   0.0000   0.0000   0.0000   0.3316
   6.000   1.1249   0.00848   0.00358  -0.0998  0.3772  1.0000  -1.9003   0.0000   0.0000   0.0000   0.3306
   6.100   1.1350   0.00857   0.00366  -0.0997  0.3709  1.0000  -1.9466   0.0000   0.0000   0.0000   0.3295
   6.200   1.1451   0.00866   0.00373  -0.0995  0.3649  1.0000  -1.9932   0.0000   0.0000   0.0000   0.3285
   6.300   1.1550   0.00877   0.00380  -0.0993  0.3580  1.0000  -2.0408   0.0000   0.0000   0.0000   0.3274
   6.400   1.1651   0.00887   0.00388  -0.0991  0.3512  1.0000  -2.0903   0.0000   0.0000   0.0000   0.3264
   6.500   1.1747   0.00900   0.00397  -0.0989  0.3440  1.0000  -2.1392   0.0000   0.0000   0.0000   0.3254
   6.600   1.1846   0.00910   0.00405  -0.0987  0.3364  1.0000  -2.1894   0.0000   0.0000   0.0000   0.3244
   6.700   1.1942   0.00923   0.00415  -0.0985  0.3288  1.0000  -2.2416   0.0000   0.0000   0.0000   0.3234
   6.800   1.2035   0.00937   0.00425  -0.0982  0.3203  1.0000  -2.2937   0.0000   0.0000   0.0000   0.3224
   6.900   1.2130   0.00950   0.00435  -0.0979  0.3113  1.0000  -2.3465   0.0000   0.0000   0.0000   0.3214
   7.000   1.2222   0.00966   0.00446  -0.0976  0.3022  1.0000  -2.3989   0.0000   0.0000   0.0000   0.3204
   7.100   1.2312   0.00982   0.00458  -0.0973  0.2927  1.0000  -2.4512   0.0000   0.0000   0.0000   0.3194
   7.200   1.2400   0.01000   0.00471  -0.0969  0.2826  1.0000  -2.5053   0.0000   0.0000   0.0000   0.3185
   7.300   1.2488   0.01019   0.00484  -0.0966  0.2718  1.0000  -2.5604   0.0000   0.0000   0.0000   0.3175
   7.400   1.2574   0.01038   0.00498  -0.0962  0.2609  1.0000  -2.6156   0.0000   0.0000   0.0000   0.3165
   7.500   1.2659   0.01058   0.00513  -0.0958  0.2496  1.0000  -2.6705   0.0000   0.0000   0.0000   0.3155
   7.600   1.2741   0.01079   0.00528  -0.0953  0.2380  1.0000  -2.7253   0.0000   0.0000   0.0000   0.3146
   7.700   1.2821   0.01102   0.00544  -0.0948  0.2261  1.0000  -2.7798   0.0000   0.0000   0.0000   0.3136
   7.800   1.2900   0.01126   0.00562  -0.0943  0.2141  1.0000  -2.8341   0.0000   0.0000   0.0000   0.3126
   7.900   1.2977   0.01151   0.00580  -0.0938  0.2020  1.0000  -2.8883   0.0000   0.0000   0.0000   0.3116
   8.000   1.3051   0.01177   0.00599  -0.0932  0.1897  1.0000  -2.9429   0.0000   0.0000   0.0000   0.3106
   8.100   1.3124   0.01204   0.00619  -0.0926  0.1776  1.0000  -2.9993   0.0000   0.0000   0.0000   0.3097
   8.200   1.3195   0.01231   0.00639  -0.0920  0.1658  1.0000  -3.0557   0.0000   0.0000   0.0000   0.3087
   8.500   1.3405   0.01313   0.00702  -0.0901  0.1331  1.0000  -3.2253   0.0000   0.0000   0.0000   0.3057
   8.600   1.3474   0.01340   0.00724  -0.0894  0.1235  1.0000  -3.2823   0.0000   0.0000   0.0000   0.3048
   8.700   1.3543   0.01366   0.00745  -0.0888  0.1146  1.0000  -3.3396   0.0000   0.0000   0.0000   0.3038
   8.800   1.3610   0.01392   0.00766  -0.0881  0.1066  1.0000  -3.3969   0.0000   0.0000   0.0000   0.3028
   8.900   1.3676   0.01419   0.00789  -0.0874  0.0991  1.0000  -3.4559   0.0000   0.0000   0.0000   0.3019
   9.000   1.3742   0.01445   0.00811  -0.0867  0.0923  1.0000  -3.5163   0.0000   0.0000   0.0000   0.3009
   9.100   1.3811   0.01468   0.00831  -0.0861  0.0864  1.0000  -3.5779   0.0000   0.0000   0.0000   0.3000
   9.200   1.3868   0.01494   0.00854  -0.0852  0.0808  1.0000  -3.6361   0.0000   0.0000   0.0000   0.2989
   9.300   1.3930   0.01516   0.00873  -0.0844  0.0760  1.0000  -3.6963   0.0000   0.0000   0.0000   0.2979
   9.400   1.3986   0.01542   0.00896  -0.0835  0.0715  1.0000  -3.7546   0.0000   0.0000   0.0000   0.2969
   9.500   1.4048   0.01564   0.00917  -0.0827  0.0674  1.0000  -3.8152   0.0000   0.0000   0.0000   0.2959
   9.600   1.4103   0.01590   0.00940  -0.0818  0.0636  1.0000  -3.8740   0.0000   0.0000   0.0000   0.2949
   9.700   1.4167   0.01612   0.00961  -0.0811  0.0604  1.0000  -3.9361   0.0000   0.0000   0.0000   0.2940
   9.800   1.4221   0.01639   0.00987  -0.0802  0.0572  1.0000  -3.9950   0.0000   0.0000   0.0000   0.2930
   9.900   1.4285   0.01661   0.01008  -0.0795  0.0547  1.0000  -4.0577   0.0000   0.0000   0.0000   0.2921
  10.000   1.4345   0.01685   0.01032  -0.0787  0.0522  1.0000  -4.1216   0.0000   0.0000   0.0000   0.2912
  10.100   1.4397   0.01714   0.01059  -0.0778  0.0496  1.0000  -4.1836   0.0000   0.0000   0.0000   0.2902
  10.200   1.4463   0.01735   0.01081  -0.0772  0.0478  1.0000  -4.2512   0.0000   0.0000   0.0000   0.2893
  10.300   1.4521   0.01761   0.01106  -0.0764  0.0458  1.0000  -4.3164   0.0000   0.0000   0.0000   0.2884
  10.400   1.4571   0.01791   0.01135  -0.0755  0.0437  1.0000  -4.3786   0.0000   0.0000   0.0000   0.2875
  10.500   1.4634   0.01814   0.01159  -0.0749  0.0423  1.0000  -4.4461   0.0000   0.0000   0.0000   0.2867
  10.600   1.4694   0.01839   0.01185  -0.0742  0.0408  1.0000  -4.5129   0.0000   0.0000   0.0000   0.2858
  10.700   1.4747   0.01869   0.01213  -0.0734  0.0393  1.0000  -4.5772   0.0000   0.0000   0.0000   0.2849
  10.800   1.4793   0.01902   0.01246  -0.0725  0.0378  1.0000  -4.6389   0.0000   0.0000   0.0000   0.2840
  10.900   1.4857   0.01925   0.01271  -0.0719  0.0369  1.0000  -4.7083   0.0000   0.0000   0.0000   0.2832
  11.000   1.4915   0.01953   0.01300  -0.0712  0.0358  1.0000  -4.7755   0.0000   0.0000   0.0000   0.2824
  11.100   1.4967   0.01983   0.01330  -0.0704  0.0347  1.0000  -4.8409   0.0000   0.0000   0.0000   0.2816
  11.200   1.5013   0.02018   0.01365  -0.0696  0.0337  1.0000  -4.9036   0.0000   0.0000   0.0000   0.2807
  11.300   1.5061   0.02052   0.01400  -0.0688  0.0327  1.0000  -4.9669   0.0000   0.0000   0.0000   0.2799
  11.400   1.5121   0.02079   0.01430  -0.0682  0.0320  1.0000  -5.0362   0.0000   0.0000   0.0000   0.2791
  11.500   1.5175   0.02110   0.01462  -0.0675  0.0311  1.0000  -5.1035   0.0000   0.0000   0.0000   0.2783
  11.600   1.5224   0.02144   0.01496  -0.0668  0.0303  1.0000  -5.1691   0.0000   0.0000   0.0000   0.2775
  11.700   1.5268   0.02182   0.01535  -0.0660  0.0296  1.0000  -5.2325   0.0000   0.0000   0.0000   0.2767
  11.800   1.5302   0.02228   0.01581  -0.0652  0.0287  1.0000  -5.2938   0.0000   0.0000   0.0000   0.2759
  11.900   1.5355   0.02261   0.01616  -0.0645  0.0282  1.0000  -5.3648   0.0000   0.0000   0.0000   0.2752
  12.000   1.5409   0.02294   0.01651  -0.0639  0.0277  1.0000  -5.4367   0.0000   0.0000   0.0000   0.2744
  12.100   1.5457   0.02330   0.01689  -0.0633  0.0271  1.0000  -5.5066   0.0000   0.0000   0.0000   0.2737
  12.200   1.5503   0.02369   0.01730  -0.0626  0.0265  1.0000  -5.5754   0.0000   0.0000   0.0000   0.2730
  12.300   1.5544   0.02412   0.01774  -0.0619  0.0260  1.0000  -5.6424   0.0000   0.0000   0.0000   0.2722
  12.400   1.5579   0.02460   0.01823  -0.0612  0.0255  1.0000  -5.7064   0.0000   0.0000   0.0000   0.2715
  12.500   1.5603   0.02517   0.01881  -0.0603  0.0249  1.0000  -5.7644   0.0000   0.0000   0.0000   0.2707
  12.600   1.5646   0.02561   0.01927  -0.0597  0.0245  1.0000  -5.8325   0.0000   0.0000   0.0000   0.2700
  12.700   1.5694   0.02601   0.01970  -0.0591  0.0241  1.0000  -5.9035   0.0000   0.0000   0.0000   0.2693
  12.800   1.5738   0.02644   0.02015  -0.0586  0.0237  1.0000  -5.9733   0.0000   0.0000   0.0000   0.2687
  12.900   1.5780   0.02690   0.02063  -0.0580  0.0233  1.0000  -6.0423   0.0000   0.0000   0.0000   0.2680
  13.000   1.5818   0.02740   0.02115  -0.0574  0.0229  1.0000  -6.1094   0.0000   0.0000   0.0000   0.2673
  13.100   1.5852   0.02793   0.02169  -0.0568  0.0225  1.0000  -6.1752   0.0000   0.0000   0.0000   0.2667
  13.200   1.5879   0.02852   0.02230  -0.0561  0.0221  1.0000  -6.2375   0.0000   0.0000   0.0000   0.2660
  13.300   1.5898   0.02920   0.02299  -0.0554  0.0217  1.0000  -6.2946   0.0000   0.0000   0.0000   0.2653
  13.400   1.5906   0.02996   0.02378  -0.0547  0.0213  1.0000  -6.3455   0.0000   0.0000   0.0000   0.2646
  13.500   1.5948   0.03046   0.02431  -0.0542  0.0211  1.0000  -6.4157   0.0000   0.0000   0.0000   0.2641
  13.600   1.5985   0.03101   0.02488  -0.0537  0.0208  1.0000  -6.4834   0.0000   0.0000   0.0000   0.2635
  13.700   1.6019   0.03159   0.02549  -0.0532  0.0205  1.0000  -6.5494   0.0000   0.0000   0.0000   0.2629
  13.800   1.6051   0.03220   0.02613  -0.0527  0.0203  1.0000  -6.6145   0.0000   0.0000   0.0000   0.2623
  13.900   1.6080   0.03283   0.02679  -0.0522  0.0200  1.0000  -6.6787   0.0000   0.0000   0.0000   0.2618
  14.000   1.6106   0.03350   0.02748  -0.0518  0.0197  1.0000  -6.7416   0.0000   0.0000   0.0000   0.2612
  14.100   1.6129   0.03421   0.02821  -0.0513  0.0195  1.0000  -6.8027   0.0000   0.0000   0.0000   0.2607
  14.200   1.6147   0.03496   0.02898  -0.0508  0.0192  1.0000  -6.8618   0.0000   0.0000   0.0000   0.2601
  14.300   1.6160   0.03579   0.02983  -0.0503  0.0190  1.0000  -6.9172   0.0000   0.0000   0.0000   0.2596
  14.400   1.6165   0.03669   0.03076  -0.0498  0.0187  1.0000  -6.9689   0.0000   0.0000   0.0000   0.2590
  14.500   1.6157   0.03773   0.03182  -0.0493  0.0185  1.0000  -7.0150   0.0000   0.0000   0.0000   0.2585
  14.600   1.6152   0.03877   0.03289  -0.0488  0.0183  1.0000  -7.0616   0.0000   0.0000   0.0000   0.2580
  14.700   1.6178   0.03950   0.03366  -0.0485  0.0181  1.0000  -7.1281   0.0000   0.0000   0.0000   0.2575
  14.800   1.6200   0.04029   0.03448  -0.0482  0.0180  1.0000  -7.1921   0.0000   0.0000   0.0000   0.2571
  14.900   1.6220   0.04111   0.03533  -0.0478  0.0178  1.0000  -7.2550   0.0000   0.0000   0.0000   0.2566
  15.000   1.6237   0.04197   0.03623  -0.0476  0.0176  1.0000  -7.3163   0.0000   0.0000   0.0000   0.2562


