xflr5 v6.61

 Calculated polar for: NACA 4412

 1 1 Reynolds number fixed          Mach number fixed         

 xtrf =   1.000 (top)        1.000 (bottom)
 Mach =   0.000     Re =     1.200 e 6     Ncrit =   9.000

  alpha     CL        CD       CDp       Cm    Top Xtr Bot Xtr   Cpmin    Chinge    XCp    
 ------- -------- --------- --------- -------- ------- ------- -------- --------- ---------
 -15.000  -0.7977   0.08048   0.07826  -0.0592  1.0000  0.0140  -8.8857   0.0000   0.0000   0.0000   0.1547
 -14.900  -0.8195   0.07552   0.07324  -0.0625  1.0000  0.0139  -9.1524   0.0000   0.0000   0.0000   0.1531
 -14.800  -0.8424   0.07045   0.06812  -0.0659  1.0000  0.0139  -9.4254   0.0000   0.0000   0.0000   0.1515
 -14.700  -0.8678   0.06505   0.06268  -0.0696  1.0000  0.0138  -9.7205   0.0000   0.0000   0.0000   0.1499
 -14.600  -0.8986   0.05877   0.05633  -0.0741  1.0000  0.0137  -10.0768   0.0000   0.0000   0.0000   0.1481
 -14.500  -0.9353   0.05131   0.04880  -0.0798  1.0000  0.0136  -10.5016   0.0000   0.0000   0.0000   0.1457
 -14.400  -0.9994   0.03555   0.03274  -0.0966  1.0000  0.0133  -11.3442   0.0000   0.0000   0.0000   0.1354
 -14.300  -1.0206   0.03416   0.03129  -0.0946  1.0000  0.0133  -11.4637   0.0000   0.0000   0.0000   0.1397
 -14.200  -1.0313   0.03319   0.03027  -0.0929  1.0000  0.0133  -11.4960   0.0000   0.0000   0.0000   0.1426
 -14.100  -1.0388   0.03235   0.02940  -0.0914  1.0000  0.0133  -11.5023   0.0000   0.0000   0.0000   0.1450
 -14.000  -1.0447   0.03162   0.02862  -0.0898  1.0000  0.0133  -11.4938   0.0000   0.0000   0.0000   0.1472
 -13.900  -1.0490   0.03094   0.02790  -0.0884  1.0000  0.0134  -11.4719   0.0000   0.0000   0.0000   0.1492
 -13.800  -1.0406   0.03000   0.02689  -0.0895  0.9994  0.0134  -11.3696   0.0000   0.0000   0.0000   0.1476
 -13.700  -1.0318   0.02914   0.02596  -0.0905  0.9987  0.0135  -11.2629   0.0000   0.0000   0.0000   0.1460
 -13.600  -1.0226   0.02834   0.02510  -0.0914  0.9980  0.0136  -11.1525   0.0000   0.0000   0.0000   0.1444
 -13.500  -1.0131   0.02761   0.02430  -0.0923  0.9974  0.0137  -11.0386   0.0000   0.0000   0.0000   0.1429
 -13.400  -1.0032   0.02692   0.02355  -0.0931  0.9968  0.0138  -10.9215   0.0000   0.0000   0.0000   0.1413
 -13.300  -0.9929   0.02629   0.02286  -0.0939  0.9963  0.0139  -10.8008   0.0000   0.0000   0.0000   0.1396
 -13.200  -0.9822   0.02570   0.02221  -0.0947  0.9958  0.0139  -10.6772   0.0000   0.0000   0.0000   0.1379
 -13.100  -0.9713   0.02515   0.02161  -0.0954  0.9954  0.0140  -10.5511   0.0000   0.0000   0.0000   0.1362
 -13.000  -0.9606   0.02466   0.02106  -0.0960  0.9949  0.0141  -10.4259   0.0000   0.0000   0.0000   0.1346
 -12.900  -0.9504   0.02420   0.02056  -0.0964  0.9940  0.0141  -10.3028   0.0000   0.0000   0.0000   0.1332
 -12.800  -0.9400   0.02373   0.02003  -0.0969  0.9932  0.0142  -10.1800   0.0000   0.0000   0.0000   0.1316
 -12.700  -0.9326   0.02264   0.01886  -0.0976  0.9921  0.0144  -10.1007   0.0000   0.0000   0.0000   0.1302
 -12.600  -0.9229   0.02195   0.01811  -0.0982  0.9912  0.0145  -9.9901   0.0000   0.0000   0.0000   0.1286
 -12.500  -0.9120   0.02143   0.01756  -0.0987  0.9906  0.0146  -9.8662   0.0000   0.0000   0.0000   0.1268
 -12.400  -0.9006   0.02099   0.01709  -0.0993  0.9900  0.0148  -9.7361   0.0000   0.0000   0.0000   0.1248
 -12.300  -0.8889   0.02061   0.01669  -0.0999  0.9895  0.0149  -9.6025   0.0000   0.0000   0.0000   0.1228
 -12.200  -0.8768   0.02026   0.01631  -0.1005  0.9891  0.0150  -9.4671   0.0000   0.0000   0.0000   0.1207
 -12.100  -0.8646   0.01993   0.01595  -0.1011  0.9887  0.0151  -9.3313   0.0000   0.0000   0.0000   0.1184
 -12.000  -0.8522   0.01961   0.01560  -0.1017  0.9883  0.0152  -9.1956   0.0000   0.0000   0.0000   0.1161
 -11.900  -0.8398   0.01929   0.01525  -0.1023  0.9880  0.0154  -9.0654   0.0000   0.0000   0.0000   0.1137
 -11.800  -0.8272   0.01898   0.01491  -0.1030  0.9877  0.0155  -8.9373   0.0000   0.0000   0.0000   0.1111
 -11.700  -0.8145   0.01867   0.01456  -0.1036  0.9874  0.0157  -8.8099   0.0000   0.0000   0.0000   0.1085
 -11.600  -0.8017   0.01836   0.01423  -0.1042  0.9872  0.0158  -8.6828   0.0000   0.0000   0.0000   0.1057
 -11.500  -0.7911   0.01809   0.01392  -0.1044  0.9860  0.0159  -8.5676   0.0000   0.0000   0.0000   0.1039
 -11.400  -0.7798   0.01783   0.01363  -0.1046  0.9849  0.0161  -8.4494   0.0000   0.0000   0.0000   0.1017
 -11.300  -0.7679   0.01758   0.01334  -0.1050  0.9841  0.0162  -8.3277   0.0000   0.0000   0.0000   0.0992
 -11.200  -0.7556   0.01734   0.01306  -0.1055  0.9833  0.0164  -8.2048   0.0000   0.0000   0.0000   0.0964
 -11.100  -0.7433   0.01712   0.01281  -0.1059  0.9826  0.0165  -8.0815   0.0000   0.0000   0.0000   0.0936
 -11.000  -0.7308   0.01693   0.01258  -0.1063  0.9819  0.0166  -7.9580   0.0000   0.0000   0.0000   0.0906
 -10.900  -0.7204   0.01632   0.01192  -0.1067  0.9810  0.0169  -7.8622   0.0000   0.0000   0.0000   0.0880
 -10.800  -0.7088   0.01593   0.01151  -0.1071  0.9802  0.0171  -7.7501   0.0000   0.0000   0.0000   0.0850
 -10.700  -0.6967   0.01564   0.01120  -0.1076  0.9795  0.0173  -7.6319   0.0000   0.0000   0.0000   0.0818
 -10.600  -0.6845   0.01540   0.01094  -0.1080  0.9788  0.0174  -7.5118   0.0000   0.0000   0.0000   0.0785
 -10.500  -0.6723   0.01518   0.01070  -0.1084  0.9782  0.0176  -7.3921   0.0000   0.0000   0.0000   0.0751
 -10.400  -0.6618   0.01498   0.01049  -0.1083  0.9766  0.0178  -7.2823   0.0000   0.0000   0.0000   0.0727
 -10.300  -0.6520   0.01480   0.01029  -0.1082  0.9746  0.0179  -7.1763   0.0000   0.0000   0.0000   0.0705
 -10.200  -0.6412   0.01461   0.01008  -0.1082  0.9730  0.0181  -7.0666   0.0000   0.0000   0.0000   0.0677
 -10.100  -0.6302   0.01442   0.00986  -0.1083  0.9715  0.0183  -6.9565   0.0000   0.0000   0.0000   0.0647
 -10.000  -0.6190   0.01423   0.00964  -0.1084  0.9702  0.0185  -6.8470   0.0000   0.0000   0.0000   0.0615
  -9.900  -0.6079   0.01404   0.00943  -0.1084  0.9689  0.0187  -6.7384   0.0000   0.0000   0.0000   0.0582
  -9.800  -0.5967   0.01387   0.00922  -0.1085  0.9677  0.0189  -6.6297   0.0000   0.0000   0.0000   0.0547
  -9.700  -0.5868   0.01372   0.00904  -0.1083  0.9655  0.0191  -6.5285   0.0000   0.0000   0.0000   0.0521
  -9.600  -0.5768   0.01358   0.00888  -0.1081  0.9632  0.0192  -6.4265   0.0000   0.0000   0.0000   0.0493
  -9.500  -0.5668   0.01337   0.00864  -0.1079  0.9611  0.0194  -6.3275   0.0000   0.0000   0.0000   0.0463
  -9.400  -0.5574   0.01302   0.00826  -0.1078  0.9591  0.0197  -6.2368   0.0000   0.0000   0.0000   0.0434
  -9.300  -0.5472   0.01279   0.00801  -0.1077  0.9573  0.0199  -6.1366   0.0000   0.0000   0.0000   0.0400
  -9.200  -0.5369   0.01262   0.00783  -0.1075  0.9553  0.0202  -6.0350   0.0000   0.0000   0.0000   0.0365
  -9.100  -0.5271   0.01247   0.00767  -0.1073  0.9524  0.0204  -5.9352   0.0000   0.0000   0.0000   0.0332
  -9.000  -0.5170   0.01234   0.00752  -0.1071  0.9496  0.0207  -5.8357   0.0000   0.0000   0.0000   0.0297
  -8.900  -0.5066   0.01221   0.00737  -0.1069  0.9471  0.0209  -5.7402   0.0000   0.0000   0.0000   0.0258
  -8.800  -0.4960   0.01208   0.00722  -0.1068  0.9448  0.0212  -5.6445   0.0000   0.0000   0.0000   0.0215
  -8.700  -0.4858   0.01196   0.00708  -0.1066  0.9418  0.0215  -5.5514   0.0000   0.0000   0.0000   0.0173
  -8.600  -0.4754   0.01184   0.00694  -0.1064  0.9388  0.0218  -5.4588   0.0000   0.0000   0.0000   0.0129
  -8.500  -0.4649   0.01173   0.00680  -0.1063  0.9361  0.0220  -5.3659   0.0000   0.0000   0.0000   0.0081
  -8.400  -0.4541   0.01163   0.00666  -0.1062  0.9338  0.0222  -5.2725   0.0000   0.0000   0.0000   0.0029
  -8.300  -0.4440   0.01138   0.00638  -0.1061  0.9315  0.0226  -5.1885   0.0000   0.0000   0.0000  -0.0021
  -8.200  -0.4338   0.01118   0.00617  -0.1060  0.9289  0.0229  -5.1009   0.0000   0.0000   0.0000  -0.0076
  -8.100  -0.4232   0.01103   0.00602  -0.1059  0.9263  0.0233  -5.0099   0.0000   0.0000   0.0000  -0.0135
  -8.000  -0.4125   0.01091   0.00589  -0.1058  0.9239  0.0236  -4.9182   0.0000   0.0000   0.0000  -0.0199
  -7.900  -0.4016   0.01081   0.00576  -0.1057  0.9217  0.0239  -4.8268   0.0000   0.0000   0.0000  -0.0267
  -7.800  -0.3908   0.01070   0.00563  -0.1057  0.9196  0.0243  -4.7361   0.0000   0.0000   0.0000  -0.0339
  -7.700  -0.3799   0.01060   0.00551  -0.1056  0.9168  0.0246  -4.6465   0.0000   0.0000   0.0000  -0.0416
  -7.600  -0.3690   0.01050   0.00539  -0.1055  0.9141  0.0250  -4.5575   0.0000   0.0000   0.0000  -0.0497
  -7.500  -0.3581   0.01041   0.00528  -0.1055  0.9114  0.0253  -4.4688   0.0000   0.0000   0.0000  -0.0584
  -7.400  -0.3471   0.01031   0.00515  -0.1054  0.9090  0.0256  -4.3813   0.0000   0.0000   0.0000  -0.0675
  -7.300  -0.3367   0.01011   0.00493  -0.1053  0.9066  0.0262  -4.2991   0.0000   0.0000   0.0000  -0.0768
  -7.200  -0.3258   0.00998   0.00480  -0.1053  0.9038  0.0267  -4.2120   0.0000   0.0000   0.0000  -0.0873
  -7.100  -0.3148   0.00989   0.00470  -0.1052  0.9010  0.0272  -4.1244   0.0000   0.0000   0.0000  -0.0986
  -7.000  -0.3038   0.00980   0.00460  -0.1052  0.8983  0.0277  -4.0374   0.0000   0.0000   0.0000  -0.1108
  -6.900  -0.2928   0.00973   0.00450  -0.1051  0.8958  0.0282  -3.9515   0.0000   0.0000   0.0000  -0.1238
  -6.800  -0.2817   0.00965   0.00440  -0.1051  0.8931  0.0286  -3.8663   0.0000   0.0000   0.0000  -0.1381
  -6.700  -0.2705   0.00958   0.00431  -0.1051  0.8900  0.0290  -3.7840   0.0000   0.0000   0.0000  -0.1536
  -6.600  -0.2597   0.00943   0.00415  -0.1050  0.8869  0.0296  -3.7091   0.0000   0.0000   0.0000  -0.1698
  -6.500  -0.2489   0.00931   0.00401  -0.1049  0.8841  0.0303  -3.6325   0.0000   0.0000   0.0000  -0.1875
  -6.400  -0.2379   0.00922   0.00391  -0.1049  0.8813  0.0309  -3.5545   0.0000   0.0000   0.0000  -0.2072
  -6.300  -0.2267   0.00914   0.00382  -0.1049  0.8780  0.0315  -3.4765   0.0000   0.0000   0.0000  -0.2292
  -6.200  -0.2156   0.00907   0.00374  -0.1049  0.8748  0.0322  -3.3992   0.0000   0.0000   0.0000  -0.2534
  -6.100  -0.2044   0.00901   0.00366  -0.1048  0.8717  0.0328  -3.3226   0.0000   0.0000   0.0000  -0.2802
  -6.000  -0.1933   0.00896   0.00357  -0.1048  0.8689  0.0333  -3.2469   0.0000   0.0000   0.0000  -0.3101
  -5.900  -0.1823   0.00881   0.00343  -0.1047  0.8656  0.0344  -3.1741   0.0000   0.0000   0.0000  -0.3432
  -5.800  -0.1712   0.00873   0.00334  -0.1047  0.8622  0.0352  -3.0993   0.0000   0.0000   0.0000  -0.3811
  -5.700  -0.1601   0.00867   0.00327  -0.1047  0.8590  0.0360  -3.0249   0.0000   0.0000   0.0000  -0.4241
  -5.600  -0.1490   0.00861   0.00319  -0.1046  0.8558  0.0368  -2.9513   0.0000   0.0000   0.0000  -0.4738
  -5.500  -0.1377   0.00856   0.00312  -0.1046  0.8523  0.0375  -2.8779   0.0000   0.0000   0.0000  -0.5325
  -5.400  -0.1266   0.00846   0.00301  -0.1046  0.8486  0.0385  -2.8072   0.0000   0.0000   0.0000  -0.6000
  -5.300  -0.1156   0.00838   0.00292  -0.1046  0.8451  0.0397  -2.7361   0.0000   0.0000   0.0000  -0.6799
  -5.200  -0.1044   0.00832   0.00285  -0.1045  0.8417  0.0407  -2.6665   0.0000   0.0000   0.0000  -0.7786
  -5.100  -0.0931   0.00827   0.00279  -0.1045  0.8380  0.0418  -2.5995   0.0000   0.0000   0.0000  -0.9022
  -5.000  -0.0819   0.00823   0.00273  -0.1045  0.8343  0.0427  -2.5331   0.0000   0.0000   0.0000  -1.0590
  -4.800  -0.0597   0.00807   0.00256  -0.1045  0.8271  0.0456  -2.4044   0.0000   0.0000   0.0000  -1.5435
  -4.700  -0.0485   0.00802   0.00250  -0.1044  0.8231  0.0470  -2.3399   0.0000   0.0000   0.0000  -1.9568
  -4.600  -0.0373   0.00799   0.00244  -0.1044  0.8193  0.0481  -2.2760   0.0000   0.0000   0.0000  -2.6150
  -4.500  -0.0261   0.00792   0.00237  -0.1044  0.8155  0.0497  -2.2133   0.0000   0.0000   0.0000  -3.8424
  -4.400  -0.0149   0.00785   0.00230  -0.1044  0.8112  0.0516  -2.1507   0.0000   0.0000   0.0000  -6.9026
  -4.300  -0.0038   0.00781   0.00225  -0.1043  0.8071  0.0533  -2.0894   0.0000   0.0000   0.0000  -27.9848
  -4.200   0.0075   0.00779   0.00220  -0.1043  0.8033  0.0548  -2.0312   0.0000   0.0000   0.0000  14.4726
  -4.100   0.0187   0.00772   0.00213  -0.1043  0.7989  0.0571  -1.9743   0.0000   0.0000   0.0000   5.9423
  -4.000   0.0298   0.00767   0.00208  -0.1043  0.7947  0.0593  -1.9175   0.0000   0.0000   0.0000   3.8164
  -3.900   0.0410   0.00764   0.00203  -0.1043  0.7907  0.0613  -1.8609   0.0000   0.0000   0.0000   2.8395
  -3.800   0.0523   0.00760   0.00198  -0.1042  0.7862  0.0634  -1.8048   0.0000   0.0000   0.0000   2.2792
  -3.700   0.0634   0.00754   0.00193  -0.1042  0.7817  0.0664  -1.7497   0.0000   0.0000   0.0000   1.9231
  -3.600   0.0746   0.00751   0.00188  -0.1042  0.7774  0.0690  -1.6945   0.0000   0.0000   0.0000   1.6707
  -3.500   0.0859   0.00748   0.00184  -0.1042  0.7727  0.0714  -1.6398   0.0000   0.0000   0.0000   1.4831
  -3.400   0.0969   0.00743   0.00179  -0.1041  0.7681  0.0749  -1.5892   0.0000   0.0000   0.0000   1.3415
  -3.300   0.1081   0.00740   0.00176  -0.1041  0.7637  0.0780  -1.5387   0.0000   0.0000   0.0000   1.2274
  -3.200   0.1194   0.00737   0.00172  -0.1041  0.7588  0.0812  -1.4888   0.0000   0.0000   0.0000   1.1347
  -3.000   0.1417   0.00730   0.00165  -0.1041  0.7495  0.0888  -1.3906   0.0000   0.0000   0.0000   0.9941
  -2.900   0.1528   0.00727   0.00161  -0.1041  0.7445  0.0931  -1.3423   0.0000   0.0000   0.0000   0.9393
  -2.800   0.1639   0.00724   0.00158  -0.1040  0.7398  0.0975  -1.2944   0.0000   0.0000   0.0000   0.8921
  -2.700   0.1752   0.00722   0.00155  -0.1040  0.7347  0.1016  -1.2467   0.0000   0.0000   0.0000   0.8504
  -2.600   0.1863   0.00718   0.00152  -0.1040  0.7297  0.1070  -1.2027   0.0000   0.0000   0.0000   0.8142
  -2.500   0.1975   0.00717   0.00149  -0.1040  0.7249  0.1113  -1.1587   0.0000   0.0000   0.0000   0.7817
  -2.400   0.2086   0.00713   0.00147  -0.1040  0.7196  0.1174  -1.1154   0.0000   0.0000   0.0000   0.7530
  -2.300   0.2197   0.00712   0.00145  -0.1039  0.7147  0.1226  -1.0725   0.0000   0.0000   0.0000   0.7272
  -2.200   0.2309   0.00708   0.00142  -0.1039  0.7094  0.1290  -1.0312   0.0000   0.0000   0.0000   0.7037
  -2.100   0.2420   0.00708   0.00140  -0.1039  0.7041  0.1347  -0.9917   0.0000   0.0000   0.0000   0.6825
  -2.000   0.2532   0.00705   0.00138  -0.1039  0.6991  0.1415  -0.9525   0.0000   0.0000   0.0000   0.6632
  -1.800   0.2754   0.00702   0.00135  -0.1038  0.6886  0.1554  -0.8752   0.0000   0.0000   0.0000   0.6292
  -1.700   0.2866   0.00700   0.00134  -0.1038  0.6832  0.1623  -0.8383   0.0000   0.0000   0.0000   0.6141
  -1.600   0.2976   0.00698   0.00133  -0.1038  0.6778  0.1703  -0.8030   0.0000   0.0000   0.0000   0.6003
  -1.500   0.3088   0.00696   0.00132  -0.1038  0.6726  0.1782  -0.7678   0.0000   0.0000   0.0000   0.5874
  -1.300   0.3310   0.00694   0.00130  -0.1037  0.6620  0.1952  -0.6986   0.0000   0.0000   0.0000   0.5642
  -1.200   0.3422   0.00692   0.00129  -0.1037  0.6565  0.2041  -0.6758   0.0000   0.0000   0.0000   0.5537
  -1.000   0.3643   0.00690   0.00128  -0.1037  0.6458  0.2231  -0.6917   0.0000   0.0000   0.0000   0.5347
  -0.900   0.3754   0.00689   0.00128  -0.1037  0.6403  0.2331  -0.6998   0.0000   0.0000   0.0000   0.5261
  -0.800   0.3865   0.00688   0.00128  -0.1036  0.6352  0.2434  -0.7080   0.0000   0.0000   0.0000   0.5179
  -0.700   0.3976   0.00687   0.00128  -0.1036  0.6297  0.2543  -0.7162   0.0000   0.0000   0.0000   0.5102
  -0.500   0.4198   0.00685   0.00129  -0.1036  0.6193  0.2784  -0.7326   0.0000   0.0000   0.0000   0.4961
  -0.400   0.4307   0.00685   0.00129  -0.1036  0.6139  0.2910  -0.7410   0.0000   0.0000   0.0000   0.4896
  -0.300   0.4418   0.00683   0.00130  -0.1036  0.6090  0.3047  -0.7495   0.0000   0.0000   0.0000   0.4834
  -0.200   0.4529   0.00682   0.00130  -0.1036  0.6037  0.3192  -0.7580   0.0000   0.0000   0.0000   0.4774
  -0.100   0.4638   0.00681   0.00131  -0.1035  0.5987  0.3348  -0.7664   0.0000   0.0000   0.0000   0.4719
   0.000   0.4750   0.00677   0.00132  -0.1035  0.5937  0.3531  -0.7750   0.0000   0.0000   0.0000   0.4665
   0.100   0.4859   0.00675   0.00133  -0.1035  0.5886  0.3737  -0.7838   0.0000   0.0000   0.0000   0.4614
   0.200   0.4968   0.00670   0.00134  -0.1035  0.5840  0.4001  -0.7925   0.0000   0.0000   0.0000   0.4566
   0.300   0.5076   0.00661   0.00135  -0.1035  0.5791  0.4423  -0.8012   0.0000   0.0000   0.0000   0.4520
   0.400   0.5182   0.00652   0.00138  -0.1034  0.5743  0.4964  -0.8098   0.0000   0.0000   0.0000   0.4476
   0.500   0.5289   0.00641   0.00140  -0.1034  0.5699  0.5481  -0.8186   0.0000   0.0000   0.0000   0.4434
   0.600   0.5395   0.00632   0.00143  -0.1034  0.5653  0.5961  -0.8275   0.0000   0.0000   0.0000   0.4393
   0.700   0.5500   0.00626   0.00146  -0.1032  0.5608  0.6413  -0.8364   0.0000   0.0000   0.0000   0.4354
   0.800   0.5606   0.00617   0.00149  -0.1031  0.5566  0.6854  -0.8454   0.0000   0.0000   0.0000   0.4315
   0.900   0.5709   0.00608   0.00152  -0.1030  0.5522  0.7310  -0.8543   0.0000   0.0000   0.0000   0.4278
   1.000   0.5807   0.00601   0.00155  -0.1027  0.5481  0.7781  -0.8631   0.0000   0.0000   0.0000   0.4241
   1.100   0.5902   0.00591   0.00159  -0.1022  0.5443  0.8267  -0.8719   0.0000   0.0000   0.0000   0.4204
   1.200   0.5987   0.00581   0.00163  -0.1015  0.5403  0.8770  -0.8801   0.0000   0.0000   0.0000   0.4167
   1.300   0.6063   0.00575   0.00167  -0.1006  0.5364  0.9256  -0.8879   0.0000   0.0000   0.0000   0.4128
   1.400   0.6188   0.00575   0.00169  -0.1007  0.5327  0.9637  -0.8986   0.0000   0.0000   0.0000   0.4096
   1.500   0.6363   0.00577   0.00171  -0.1021  0.5284  0.9850  -0.9124   0.0000   0.0000   0.0000   0.4072
   1.600   0.6534   0.00582   0.00172  -0.1034  0.5242  0.9965  -0.9259   0.0000   0.0000   0.0000   0.4050
   1.700   0.6669   0.00586   0.00174  -0.1040  0.5206  1.0000  -0.9374   0.0000   0.0000   0.0000   0.4025
   1.800   0.6778   0.00590   0.00176  -0.1039  0.5171  1.0000  -0.9477   0.0000   0.0000   0.0000   0.3997
   1.900   0.6885   0.00594   0.00178  -0.1038  0.5135  1.0000  -0.9579   0.0000   0.0000   0.0000   0.3971
   2.000   0.6991   0.00599   0.00180  -0.1037  0.5101  1.0000  -0.9681   0.0000   0.0000   0.0000   0.3945
   2.100   0.7098   0.00603   0.00182  -0.1036  0.5069  1.0000  -0.9786   0.0000   0.0000   0.0000   0.3921
   2.200   0.7208   0.00606   0.00184  -0.1035  0.5037  1.0000  -0.9894   0.0000   0.0000   0.0000   0.3897
   2.300   0.7316   0.00610   0.00187  -0.1034  0.5003  1.0000  -1.0002   0.0000   0.0000   0.0000   0.3873
   2.400   0.7422   0.00616   0.00190  -0.1033  0.4972  1.0000  -1.0109   0.0000   0.0000   0.0000   0.3850
   2.500   0.7531   0.00620   0.00192  -0.1032  0.4942  1.0000  -1.0222   0.0000   0.0000   0.0000   0.3828
   2.600   0.7640   0.00623   0.00195  -0.1032  0.4912  1.0000  -1.0336   0.0000   0.0000   0.0000   0.3807
   2.700   0.7749   0.00627   0.00197  -0.1031  0.4881  1.0000  -1.0449   0.0000   0.0000   0.0000   0.3786
   2.800   0.7856   0.00633   0.00200  -0.1030  0.4851  1.0000  -1.0566   0.0000   0.0000   0.0000   0.3766
   2.900   0.7964   0.00638   0.00204  -0.1030  0.4822  1.0000  -1.0683   0.0000   0.0000   0.0000   0.3746
   3.000   0.8075   0.00641   0.00206  -0.1029  0.4794  1.0000  -1.0805   0.0000   0.0000   0.0000   0.3727
   3.100   0.8184   0.00645   0.00209  -0.1029  0.4765  1.0000  -1.0929   0.0000   0.0000   0.0000   0.3708
   3.200   0.8292   0.00650   0.00213  -0.1028  0.4735  1.0000  -1.1053   0.0000   0.0000   0.0000   0.3690
   3.300   0.8399   0.00656   0.00216  -0.1027  0.4706  1.0000  -1.1179   0.0000   0.0000   0.0000   0.3672
   3.400   0.8509   0.00659   0.00219  -0.1027  0.4680  1.0000  -1.1310   0.0000   0.0000   0.0000   0.3655
   3.500   0.8619   0.00663   0.00222  -0.1027  0.4651  1.0000  -1.1446   0.0000   0.0000   0.0000   0.3638
   3.600   0.8728   0.00668   0.00226  -0.1026  0.4621  1.0000  -1.1582   0.0000   0.0000   0.0000   0.3621
   3.700   0.8835   0.00673   0.00230  -0.1025  0.4591  1.0000  -1.1722   0.0000   0.0000   0.0000   0.3605
   3.800   0.8942   0.00679   0.00234  -0.1024  0.4563  1.0000  -1.1866   0.0000   0.0000   0.0000   0.3589
   3.900   0.9053   0.00682   0.00237  -0.1024  0.4535  1.0000  -1.2018   0.0000   0.0000   0.0000   0.3574
   4.000   0.9162   0.00687   0.00241  -0.1024  0.4503  1.0000  -1.2177   0.0000   0.0000   0.0000   0.3559
   4.100   0.9269   0.00692   0.00245  -0.1023  0.4471  1.0000  -1.2343   0.0000   0.0000   0.0000   0.3544
   4.200   0.9375   0.00699   0.00249  -0.1022  0.4440  1.0000  -1.2524   0.0000   0.0000   0.0000   0.3529
   4.300   0.9486   0.00702   0.00253  -0.1022  0.4409  1.0000  -1.2744   0.0000   0.0000   0.0000   0.3516
   4.400   0.9594   0.00707   0.00257  -0.1021  0.4373  1.0000  -1.2998   0.0000   0.0000   0.0000   0.3502
   4.500   0.9700   0.00714   0.00262  -0.1020  0.4335  1.0000  -1.3274   0.0000   0.0000   0.0000   0.3488
   4.600   0.9807   0.00720   0.00266  -0.1020  0.4299  1.0000  -1.3572   0.0000   0.0000   0.0000   0.3475
   4.700   0.9916   0.00724   0.00270  -0.1019  0.4259  1.0000  -1.3889   0.0000   0.0000   0.0000   0.3462
   4.800   1.0022   0.00731   0.00275  -0.1018  0.4215  1.0000  -1.4217   0.0000   0.0000   0.0000   0.3449
   4.900   1.0127   0.00738   0.00280  -0.1017  0.4174  1.0000  -1.4553   0.0000   0.0000   0.0000   0.3436
   5.000   1.0236   0.00742   0.00284  -0.1017  0.4130  1.0000  -1.4912   0.0000   0.0000   0.0000   0.3424
   5.100   1.0341   0.00749   0.00289  -0.1016  0.4082  1.0000  -1.5286   0.0000   0.0000   0.0000   0.3411
   5.200   1.0447   0.00756   0.00294  -0.1015  0.4039  1.0000  -1.5665   0.0000   0.0000   0.0000   0.3399
   5.300   1.0554   0.00761   0.00299  -0.1014  0.3989  1.0000  -1.6049   0.0000   0.0000   0.0000   0.3388
   5.400   1.0657   0.00770   0.00304  -0.1013  0.3939  1.0000  -1.6448   0.0000   0.0000   0.0000   0.3376
   5.500   1.0764   0.00776   0.00310  -0.1012  0.3890  1.0000  -1.6860   0.0000   0.0000   0.0000   0.3365
   5.600   1.0868   0.00784   0.00315  -0.1011  0.3835  1.0000  -1.7289   0.0000   0.0000   0.0000   0.3353
   5.700   1.0972   0.00791   0.00321  -0.1010  0.3782  1.0000  -1.7721   0.0000   0.0000   0.0000   0.3342
   5.800   1.1075   0.00799   0.00327  -0.1008  0.3722  1.0000  -1.8161   0.0000   0.0000   0.0000   0.3331
   5.900   1.1177   0.00808   0.00334  -0.1007  0.3664  1.0000  -1.8619   0.0000   0.0000   0.0000   0.3320
   6.000   1.1280   0.00817   0.00340  -0.1005  0.3598  1.0000  -1.9081   0.0000   0.0000   0.0000   0.3310
   6.100   1.1380   0.00827   0.00348  -0.1004  0.3534  1.0000  -1.9543   0.0000   0.0000   0.0000   0.3299
   6.200   1.1480   0.00838   0.00355  -0.1002  0.3460  1.0000  -2.0006   0.0000   0.0000   0.0000   0.3289
   6.300   1.1580   0.00848   0.00363  -0.1000  0.3392  1.0000  -2.0489   0.0000   0.0000   0.0000   0.3278
   6.400   1.1677   0.00861   0.00372  -0.0998  0.3315  1.0000  -2.0976   0.0000   0.0000   0.0000   0.3268
   6.500   1.1776   0.00872   0.00380  -0.0996  0.3235  1.0000  -2.1473   0.0000   0.0000   0.0000   0.3258
   6.600   1.1872   0.00885   0.00389  -0.0993  0.3156  1.0000  -2.1974   0.0000   0.0000   0.0000   0.3248
   6.700   1.1965   0.00900   0.00400  -0.0991  0.3066  1.0000  -2.2490   0.0000   0.0000   0.0000   0.3237
   6.800   1.2059   0.00914   0.00410  -0.0988  0.2971  1.0000  -2.3013   0.0000   0.0000   0.0000   0.3227
   6.900   1.2153   0.00929   0.00421  -0.0985  0.2877  1.0000  -2.3537   0.0000   0.0000   0.0000   0.3218
   7.000   1.2244   0.00946   0.00433  -0.0982  0.2779  1.0000  -2.4059   0.0000   0.0000   0.0000   0.3208
   7.100   1.2333   0.00963   0.00445  -0.0979  0.2675  1.0000  -2.4580   0.0000   0.0000   0.0000   0.3198
   7.200   1.2420   0.00982   0.00458  -0.0975  0.2568  1.0000  -2.5126   0.0000   0.0000   0.0000   0.3188
   7.300   1.2506   0.01002   0.00472  -0.0971  0.2456  1.0000  -2.5673   0.0000   0.0000   0.0000   0.3178
   7.400   1.2591   0.01023   0.00487  -0.0967  0.2341  1.0000  -2.6219   0.0000   0.0000   0.0000   0.3168
   7.500   1.2674   0.01044   0.00503  -0.0962  0.2225  1.0000  -2.6765   0.0000   0.0000   0.0000   0.3158
   7.600   1.2755   0.01067   0.00519  -0.0958  0.2107  1.0000  -2.7311   0.0000   0.0000   0.0000   0.3148
   7.700   1.2836   0.01090   0.00535  -0.0953  0.1989  1.0000  -2.7857   0.0000   0.0000   0.0000   0.3139
   7.800   1.2914   0.01114   0.00553  -0.0948  0.1869  1.0000  -2.8400   0.0000   0.0000   0.0000   0.3129
   7.900   1.2991   0.01139   0.00571  -0.0943  0.1750  1.0000  -2.8943   0.0000   0.0000   0.0000   0.3119
   8.000   1.3067   0.01164   0.00589  -0.0937  0.1635  1.0000  -2.9498   0.0000   0.0000   0.0000   0.3109
   8.100   1.3142   0.01189   0.00609  -0.0931  0.1523  1.0000  -3.0069   0.0000   0.0000   0.0000   0.3100
   8.200   1.3216   0.01215   0.00628  -0.0926  0.1416  1.0000  -3.0641   0.0000   0.0000   0.0000   0.3090
   8.300   1.3289   0.01241   0.00648  -0.0920  0.1315  1.0000  -3.1214   0.0000   0.0000   0.0000   0.3080
   8.400   1.3361   0.01267   0.00668  -0.0914  0.1218  1.0000  -3.1789   0.0000   0.0000   0.0000   0.3071
   8.500   1.3435   0.01291   0.00687  -0.0908  0.1131  1.0000  -3.2373   0.0000   0.0000   0.0000   0.3061
   8.600   1.3509   0.01315   0.00706  -0.0902  0.1053  1.0000  -3.2960   0.0000   0.0000   0.0000   0.3052
   8.700   1.3581   0.01339   0.00726  -0.0896  0.0981  1.0000  -3.3546   0.0000   0.0000   0.0000   0.3042
   8.900   1.3727   0.01385   0.00766  -0.0884  0.0855  1.0000  -3.4764   0.0000   0.0000   0.0000   0.3024
   9.000   1.3797   0.01409   0.00786  -0.0878  0.0799  1.0000  -3.5384   0.0000   0.0000   0.0000   0.3014
   9.100   1.3868   0.01432   0.00806  -0.0872  0.0748  1.0000  -3.6010   0.0000   0.0000   0.0000   0.3005
   9.200   1.3939   0.01453   0.00825  -0.0865  0.0704  1.0000  -3.6641   0.0000   0.0000   0.0000   0.2996
   9.300   1.4004   0.01476   0.00845  -0.0858  0.0662  1.0000  -3.7256   0.0000   0.0000   0.0000   0.2986
   9.400   1.4068   0.01496   0.00864  -0.0850  0.0627  1.0000  -3.7872   0.0000   0.0000   0.0000   0.2976
   9.500   1.4132   0.01517   0.00883  -0.0843  0.0595  1.0000  -3.8490   0.0000   0.0000   0.0000   0.2967
   9.600   1.4191   0.01540   0.00904  -0.0834  0.0563  1.0000  -3.9093   0.0000   0.0000   0.0000   0.2957
   9.700   1.4259   0.01559   0.00923  -0.0827  0.0539  1.0000  -3.9735   0.0000   0.0000   0.0000   0.2948
   9.800   1.4318   0.01582   0.00945  -0.0819  0.0513  1.0000  -4.0348   0.0000   0.0000   0.0000   0.2938
   9.900   1.4381   0.01604   0.00966  -0.0812  0.0489  1.0000  -4.0988   0.0000   0.0000   0.0000   0.2929
  10.000   1.4447   0.01625   0.00986  -0.0805  0.0469  1.0000  -4.1664   0.0000   0.0000   0.0000   0.2920
  10.100   1.4505   0.01649   0.01010  -0.0797  0.0448  1.0000  -4.2313   0.0000   0.0000   0.0000   0.2910
  10.200   1.4566   0.01673   0.01033  -0.0789  0.0429  1.0000  -4.2975   0.0000   0.0000   0.0000   0.2901
  10.300   1.4632   0.01694   0.01054  -0.0782  0.0414  1.0000  -4.3664   0.0000   0.0000   0.0000   0.2893
  10.400   1.4691   0.01718   0.01078  -0.0775  0.0398  1.0000  -4.4328   0.0000   0.0000   0.0000   0.2884
  10.500   1.4745   0.01746   0.01105  -0.0767  0.0382  1.0000  -4.4973   0.0000   0.0000   0.0000   0.2875
  10.600   1.4810   0.01767   0.01127  -0.0760  0.0371  1.0000  -4.5667   0.0000   0.0000   0.0000   0.2866
  10.700   1.4873   0.01790   0.01151  -0.0753  0.0360  1.0000  -4.6357   0.0000   0.0000   0.0000   0.2858
  10.800   1.4931   0.01816   0.01177  -0.0746  0.0348  1.0000  -4.7030   0.0000   0.0000   0.0000   0.2850
  10.900   1.4982   0.01846   0.01206  -0.0738  0.0336  1.0000  -4.7679   0.0000   0.0000   0.0000   0.2841
  11.000   1.5040   0.01872   0.01234  -0.0731  0.0326  1.0000  -4.8352   0.0000   0.0000   0.0000   0.2832
  11.100   1.5103   0.01896   0.01258  -0.0724  0.0318  1.0000  -4.9058   0.0000   0.0000   0.0000   0.2825
  11.200   1.5161   0.01922   0.01286  -0.0717  0.0309  1.0000  -4.9746   0.0000   0.0000   0.0000   0.2816
  11.300   1.5213   0.01953   0.01316  -0.0710  0.0300  1.0000  -5.0414   0.0000   0.0000   0.0000   0.2808
  11.400   1.5261   0.01986   0.01350  -0.0702  0.0291  1.0000  -5.1060   0.0000   0.0000   0.0000   0.2800
  11.500   1.5312   0.02018   0.01382  -0.0694  0.0284  1.0000  -5.1722   0.0000   0.0000   0.0000   0.2792
  11.600   1.5372   0.02044   0.01410  -0.0688  0.0278  1.0000  -5.2433   0.0000   0.0000   0.0000   0.2784
  11.700   1.5429   0.02073   0.01441  -0.0682  0.0272  1.0000  -5.3157   0.0000   0.0000   0.0000   0.2777
  11.800   1.5480   0.02105   0.01474  -0.0675  0.0266  1.0000  -5.3871   0.0000   0.0000   0.0000   0.2769
  11.900   1.5528   0.02140   0.01510  -0.0668  0.0260  1.0000  -5.4568   0.0000   0.0000   0.0000   0.2761
  12.000   1.5571   0.02179   0.01549  -0.0660  0.0254  1.0000  -5.5243   0.0000   0.0000   0.0000   0.2753
  12.100   1.5607   0.02223   0.01594  -0.0651  0.0247  1.0000  -5.5880   0.0000   0.0000   0.0000   0.2745
  12.200   1.5664   0.02253   0.01626  -0.0646  0.0244  1.0000  -5.6634   0.0000   0.0000   0.0000   0.2738
  12.300   1.5718   0.02286   0.01661  -0.0640  0.0239  1.0000  -5.7370   0.0000   0.0000   0.0000   0.2731
  12.400   1.5767   0.02322   0.01699  -0.0633  0.0235  1.0000  -5.8094   0.0000   0.0000   0.0000   0.2724
  12.500   1.5814   0.02360   0.01738  -0.0627  0.0230  1.0000  -5.8807   0.0000   0.0000   0.0000   0.2717
  12.600   1.5856   0.02402   0.01781  -0.0620  0.0226  1.0000  -5.9502   0.0000   0.0000   0.0000   0.2709
  12.700   1.5895   0.02448   0.01828  -0.0613  0.0221  1.0000  -6.0177   0.0000   0.0000   0.0000   0.2702
  12.800   1.5923   0.02501   0.01882  -0.0605  0.0216  1.0000  -6.0802   0.0000   0.0000   0.0000   0.2695
  12.900   1.5958   0.02550   0.01934  -0.0598  0.0212  1.0000  -6.1451   0.0000   0.0000   0.0000   0.2687
  13.000   1.6006   0.02590   0.01975  -0.0593  0.0210  1.0000  -6.2186   0.0000   0.0000   0.0000   0.2681
  13.100   1.6052   0.02632   0.02020  -0.0587  0.0207  1.0000  -6.2909   0.0000   0.0000   0.0000   0.2675
  13.200   1.6095   0.02677   0.02068  -0.0581  0.0203  1.0000  -6.3619   0.0000   0.0000   0.0000   0.2668
  13.300   1.6135   0.02725   0.02117  -0.0576  0.0200  1.0000  -6.4318   0.0000   0.0000   0.0000   0.2662
  13.400   1.6172   0.02776   0.02170  -0.0570  0.0197  1.0000  -6.5006   0.0000   0.0000   0.0000   0.2655
  13.500   1.6205   0.02830   0.02226  -0.0564  0.0194  1.0000  -6.5674   0.0000   0.0000   0.0000   0.2649
  13.600   1.6234   0.02888   0.02286  -0.0558  0.0191  1.0000  -6.6322   0.0000   0.0000   0.0000   0.2642
  13.700   1.6257   0.02953   0.02352  -0.0551  0.0188  1.0000  -6.6935   0.0000   0.0000   0.0000   0.2636
  13.800   1.6270   0.03026   0.02427  -0.0544  0.0185  1.0000  -6.7489   0.0000   0.0000   0.0000   0.2629
  13.900   1.6288   0.03096   0.02500  -0.0538  0.0183  1.0000  -6.8074   0.0000   0.0000   0.0000   0.2623
  14.000   1.6327   0.03151   0.02557  -0.0533  0.0181  1.0000  -6.8775   0.0000   0.0000   0.0000   0.2618
  14.100   1.6362   0.03209   0.02618  -0.0529  0.0179  1.0000  -6.9462   0.0000   0.0000   0.0000   0.2612
  14.200   1.6393   0.03270   0.02681  -0.0524  0.0177  1.0000  -7.0131   0.0000   0.0000   0.0000   0.2606
  14.300   1.6423   0.03333   0.02747  -0.0520  0.0175  1.0000  -7.0819   0.0000   0.0000   0.0000   0.2601
  14.400   1.6451   0.03399   0.02816  -0.0515  0.0172  1.0000  -7.1508   0.0000   0.0000   0.0000   0.2596
  14.500   1.6477   0.03467   0.02886  -0.0511  0.0170  1.0000  -7.2190   0.0000   0.0000   0.0000   0.2590
  14.600   1.6499   0.03539   0.02961  -0.0506  0.0168  1.0000  -7.2851   0.0000   0.0000   0.0000   0.2585
  14.700   1.6519   0.03615   0.03039  -0.0502  0.0166  1.0000  -7.3500   0.0000   0.0000   0.0000   0.2580
  14.800   1.6534   0.03697   0.03122  -0.0498  0.0164  1.0000  -7.4121   0.0000   0.0000   0.0000   0.2575
  14.900   1.6544   0.03783   0.03211  -0.0493  0.0162  1.0000  -7.4713   0.0000   0.0000   0.0000   0.2570
  15.000   1.6545   0.03880   0.03310  -0.0489  0.0160  1.0000  -7.5247   0.0000   0.0000   0.0000   0.2565


